# Name: 0S6
# Created by ModelServer 0.9.12

# model_server_result.job_id: Ux-j_cY2K4z0_riDZNai4w
# model_server_result.datetime_utc: 2024-10-20 22:07:17
# model_server_result.server_version: 0.9.12
# model_server_result.query_name: ligand
# model_server_result.source_id: pdb-bcif
# model_server_result.entry_id: 6duv

# model_server_params.name: atom_site
# model_server_params.value: {"label_asym_id":"C","auth_seq_id":501}

# model_server_stats.io_time_ms: 10
# model_server_stats.parse_time_ms: 18
# model_server_stats.create_model_time_ms: 8
# model_server_stats.query_time_ms: 289
# model_server_stats.encode_time_ms: 0
# model_server_stats.element_count: 28

@<TRIPOS>MOLECULE
0S6
28 31 1
****
****

@<TRIPOS>ATOM
1 CL1 -45.604 12.621 21.900 CL 1 0S6 0.000
2 C15 -44.378 13.693 21.178 C.ar 1 0S6 0.000
3 C16 -43.534 14.400 22.020 C.ar 1 0S6 0.000
4 C17 -42.571 15.239 21.498 C.ar 1 0S6 0.000
5 C13 -44.293 13.803 19.792 C.ar 1 0S6 0.000
6 C14 -43.314 14.646 19.270 C.ar 1 0S6 0.000
7 C12 -42.455 15.360 20.111 C.ar 1 0S6 0.000
8 C8 -41.419 16.285 19.561 C.2 1 0S6 0.000
9 C5 -41.754 16.977 18.280 C.ar 1 0S6 0.000
10 C4 -43.098 17.581 17.959 C.ar 1 0S6 0.000
11 C7 -44.328 17.671 18.831 C.3 1 0S6 0.000
12 C2 -43.093 18.142 16.582 C.ar 1 0S6 0.000
13 C6 -44.157 18.862 15.806 C.3 1 0S6 0.000
14 S1 -41.538 17.918 15.851 S.3 1 0S6 0.000
15 C3 -40.783 17.076 17.165 C.ar 1 0S6 0.000
16 N9 -39.494 16.641 17.236 N.ar 1 0S6 0.000
17 C11 -38.769 16.108 16.248 C.ar 1 0S6 0.000
18 C28 -39.163 15.788 14.827 C.3 1 0S6 0.000
19 N27 -37.554 15.882 16.790 N.ar 1 0S6 0.000
20 N21 -37.566 16.333 18.139 N.ar 1 0S6 0.000
21 C19 -38.802 16.806 18.358 C.ar 1 0S6 0.000
22 N10 -40.307 16.446 20.146 N.2 1 0S6 0.000
23 C20 -39.306 17.359 19.625 C.3 1 0S6 0.000
24 C22 -38.176 17.385 20.647 C.3 1 0S6 0.000
25 C23 -38.737 18.005 21.911 C.2 1 0S6 0.000
26 O24 -38.281 17.756 23.028 O.2 1 0S6 0.000
27 O25 -39.832 18.937 21.797 O.3 1 0S6 0.000
28 C26 -40.411 19.450 23.011 C.3 1 0S6 0.000
@<TRIPOS>BOND
1 1 2 1
2 2 5 ar
3 2 3 ar
4 3 4 ar
5 4 7 ar
6 5 6 ar
7 6 7 ar
8 7 8 1
9 8 22 2
10 8 9 1
11 9 10 ar
12 9 15 ar
13 10 11 1
14 10 12 ar
15 12 13 1
16 12 14 ar
17 14 15 ar
18 15 16 1
19 16 21 ar
20 16 17 ar
21 17 19 ar
22 17 18 1
23 19 20 ar
24 20 21 ar
25 21 23 1
26 22 23 1
27 23 24 1
28 24 25 1
29 25 27 1
30 25 26 2
31 27 28 1
@<TRIPOS>SUBSTRUCTURE
1 0S6 1
