conf_0
  RxDock  10202421033D
librxdock.so/0.1.0
 74 80  0  0  0  0  0  0  0  0999 V2000
  -44.3304   17.6855   18.8183 C   0  0  0  0  0  0
  -43.0914   17.5881   17.9475 C   0  0  0  0  0  0
  -43.0641   18.1688   16.5845 C   0  0  0  0  0  0
  -41.5118   17.9325   15.8563 S   0  0  0  0  0  0
  -40.7586   17.0925   17.1771 C   0  0  0  0  0  0
  -41.7496   16.9715   18.2603 C   0  0  0  0  0  0
  -41.4158   16.2565   19.5317 C   0  0  0  0  0  0
  -40.3405   16.4855   20.1154 N   0  0  0  0  0  0
  -39.3036   17.4174   19.6688 C   0  0  0  0  0  0
  -38.7920   16.8070   18.3844 C   0  0  0  0  0  0
  -39.4654   16.6620   17.2565 N   0  0  0  0  0  0
  -38.7464   16.1025   16.2709 C   0  0  0  0  0  0
  -37.5351   15.8778   16.8163 N   0  0  0  0  0  0
  -37.5588   16.3281   18.1724 N   0  0  0  0  0  0
  -39.1318   15.7854   14.8470 C   0  0  0  0  0  0
  -38.2339   17.3171   20.6876 C   0  0  0  0  0  0
  -38.6500   17.4828   22.1607 C   0  0  0  0  0  0
  -38.3346   18.0974   22.9334 O   0  0  0  0  0  0
  -39.6734   16.5138   22.6155 N   0  0  0  0  0  0
  -40.1969   16.4755   23.9464 C   0  0  0  0  0  0
  -41.0489   15.5511   24.6546 C   0  0  0  0  0  0
  -42.2507   15.0761   24.5268 O   0  0  0  0  0  0
  -42.9433   14.3038   25.4617 C   0  0  0  0  0  0
  -44.2706   13.7716   24.9582 C   0  0  0  0  0  0
  -45.1929   13.1003   25.4947 O   0  0  0  0  0  0
  -46.3534   12.5840   25.3428 C   0  0  0  0  0  0
  -47.7551   12.8680   25.0800 C   0  0  0  0  0  0
  -48.4505   13.3828   24.0774 O   0  0  0  0  0  0
  -49.8847   13.6922   24.2518 C   0  0  0  0  0  0
  -49.9338   14.8789   25.2319 C   0  0  0  0  0  0
  -50.9888   15.2270   25.7734 O   0  0  0  0  0  0
  -48.7305   15.4276   25.4048 N   0  0  0  0  0  0
  -48.4286   16.5080   26.3399 C   0  0  0  0  0  0
  -48.0123   17.6937   25.4361 C   0  0  0  0  0  0
  -47.2956   17.5028   24.4632 O   0  0  0  0  0  0
  -48.4620   18.9391   25.7417 N   0  0  0  0  0  0
  -49.3397   19.4443   26.8414 C   0  0  0  0  0  0
  -49.9427   20.7392   26.2543 C   0  0  0  0  0  0
  -48.8310   21.3058   25.4311 C   0  0  0  0  0  0
  -48.0730   20.0935   24.8362 C   0  0  0  0  0  0
  -46.6982   20.4446   24.8343 C   0  0  0  0  0  0
  -46.0091   20.2381   25.8244 O   0  0  0  0  0  0
  -46.2037   21.0084   23.7147 N   0  0  0  0  0  0
  -44.8326   21.4581   23.5829 C   0  0  0  0  0  0
  -44.6802   22.8384   23.9116 C   0  0  0  0  0  0
  -43.4443   23.3721   24.2098 C   0  0  0  0  0  0
  -43.2711   24.7326   24.4727 C   0  0  0  0  0  0
  -44.3541   25.6263   24.4467 C   0  0  0  0  0  0
  -45.6011   25.0972   24.1481 C   0  0  0  0  0  0
  -45.7791   23.7308   23.8830 C   0  0  0  0  0  0
  -44.1786   26.9448   24.6985 C   0  0  0  0  0  0
  -43.2033   27.7394   24.2076 C   0  0  0  0  0  0
  -43.2405   29.0195   24.6106 N   0  0  0  0  0  0
  -44.3341   29.3418   25.3472 C   0  0  0  0  0  0
  -45.1319   27.9250   25.7004 S   0  0  0  0  0  0
  -42.0929   27.2958   23.2406 C   0  0  0  0  0  0
  -51.0603   20.4825   25.4071 O   0  0  0  0  0  0
  -47.3376   16.0396   27.3547 C   0  0  0  0  0  0
  -47.0174   17.1888   28.3039 C   0  0  0  0  0  0
  -46.0350   15.5751   26.6693 C   0  0  0  0  0  0
  -47.8742   14.8589   28.1806 C   0  0  0  0  0  0
  -42.4717   15.3673   20.0743 C   0  0  0  0  0  0
  -43.3650   14.6820   19.2075 C   0  0  0  0  0  0
  -44.3721   13.8574   19.6995 C   0  0  0  0  0  0
  -44.4913   13.7225   21.0551 C   0  0  0  0  0  0
  -43.6196   14.4100   21.8940 C   0  0  0  0  0  0
  -42.6265   15.2201   21.4170 C   0  0  0  0  0  0
  -45.6789   12.6454   21.8163 Cl  0  0  0  0  0  0
  -44.1406   18.8830   15.8019 C   0  0  0  0  0  0
  -39.9835   15.7306   21.9961 H   0  0  0  0  0  0
  -47.9031   15.1646   24.8424 H   0  0  0  0  0  0
  -46.7820   21.1727   22.8291 H   0  0  0  0  0  0
  -42.4887   29.7462   24.3916 H   0  0  0  0  0  0
  -51.7439   21.1684   25.6235 H   0  0  0  0  0  0
  1  2  1  0  0  0
  2  3  2  0  0  0
  3  4  1  0  0  0
  3 69  1  0  0  0
  4  5  1  0  0  0
  5  6  2  0  0  0
  5 11  1  0  0  0
  6  7  1  0  0  0
  6  2  1  0  0  0
  7  8  2  0  0  0
  7 62  1  0  0  0
  8  9  1  0  0  0
  9 10  1  0  0  0
  9 16  1  0  0  0
 10 11  1  0  0  0
 11 12  1  0  0  0
 12 13  2  0  0  0
 12 15  1  0  0  0
 13 14  1  0  0  0
 14 10  2  0  0  0
 16 17  1  0  0  0
 17 18  2  0  0  0
 17 19  1  0  0  0
 19 20  1  0  0  0
 19 70  1  0  0  0
 20 21  1  0  0  0
 21 22  1  0  0  0
 22 23  1  0  0  0
 23 24  1  0  0  0
 24 25  1  0  0  0
 25 26  1  0  0  0
 26 27  1  0  0  0
 27 28  1  0  0  0
 28 29  1  0  0  0
 29 30  1  0  0  0
 30 31  2  0  0  0
 30 32  1  0  0  0
 32 33  1  0  0  0
 32 71  1  0  0  0
 33 34  1  0  0  0
 33 58  1  0  0  0
 34 35  2  0  0  0
 34 36  1  0  0  0
 36 37  1  0  0  0
 37 38  1  0  0  0
 38 39  1  0  0  0
 38 57  1  0  0  0
 39 40  1  0  0  0
 40 41  1  0  0  0
 40 36  1  0  0  0
 41 42  2  0  0  0
 41 43  1  0  0  0
 43 44  1  0  0  0
 43 72  1  0  0  0
 44 45  1  0  0  0
 45 46  2  0  0  0
 46 47  1  0  0  0
 47 48  2  0  0  0
 48 49  1  0  0  0
 48 51  1  0  0  0
 49 50  2  0  0  0
 50 45  1  0  0  0
 51 52  2  0  0  0
 52 53  1  0  0  0
 52 56  1  0  0  0
 53 54  1  0  0  0
 53 73  1  0  0  0
 54 55  1  0  0  0
 55 51  1  0  0  0
 57 74  1  0  0  0
 58 59  1  0  0  0
 58 60  1  0  0  0
 58 61  1  0  0  0
 62 63  2  0  0  0
 63 64  1  0  0  0
 64 65  2  0  0  0
 65 66  1  0  0  0
 65 68  1  0  0  0
 66 67  2  0  0  0
 67 62  1  0  0  0
M  END
>  <CHROM.0>
9.61175700,-1.72897027,-137.46176413,130.54189500,-112.12147481,169.96896524

>  <CHROM.1>
32.10190269,-51.71535018,-125.96636230,-171.03888834,-59.73477808,-170.60281033
-173.56269492,-176.68441807,176.81434020,-61.87055824,63.61586290,-171.41658304
68.92378174,-166.76580525,-115.34019291,-41.39214075,178.91528120,137.83740499
-27.98858599,-93.14770125,161.88940726,44.96331063,-44.28125625,18.27767754
22.75801948,-0.87250306,0.74497077,0.18593216

>  <Name>
conf_0

>  <Rbt.Current_Directory>
/home/paula/Documents/testing/tutorial/protac_scoring/protac_mz1/protein_pose_8181

>  <Rbt.Executable>
rbdock/0.1.0

>  <Rbt.Library>
librxdock.so/0.1.0

>  <Rbt.Parameter_File>
/home/paula/Apps/install/miniconda3/envs/p4ward/share/rxdock-2013.1.1_148c5bd1-1/data/scripts/score.prm

>  <Rbt.Receptor>
cavity.prm

>  <SCORE>
-33.1677

>  <SCORE.INTER>
-29.8033

>  <SCORE.INTER.CONST>
1

>  <SCORE.INTER.POLAR>
-2.48389

>  <SCORE.INTER.REPUL>
0.000361821

>  <SCORE.INTER.ROT>
21

>  <SCORE.INTER.VDW>
-47.7599

>  <SCORE.INTER.norm>
-0.431931

>  <SCORE.INTRA>
0

>  <SCORE.INTRA.DIHEDRAL>
0

>  <SCORE.INTRA.DIHEDRAL.0>
28.0913

>  <SCORE.INTRA.POLAR>
0

>  <SCORE.INTRA.POLAR.0>
-0.179617

>  <SCORE.INTRA.REPUL>
0

>  <SCORE.INTRA.REPUL.0>
0

>  <SCORE.INTRA.VDW>
0

>  <SCORE.INTRA.VDW.0>
-5.03373

>  <SCORE.INTRA.norm>
0

>  <SCORE.RESTR>
0

>  <SCORE.RESTR.CAVITY>
0

>  <SCORE.RESTR.norm>
0

>  <SCORE.SYSTEM>
-3.36443

>  <SCORE.SYSTEM.CONST>
0

>  <SCORE.SYSTEM.DIHEDRAL>
15.6857

>  <SCORE.SYSTEM.POLAR>
-3.77449

>  <SCORE.SYSTEM.VDW>
1.626

>  <SCORE.SYSTEM.norm>
-0.0487598

>  <SCORE.heavy>
69

>  <SCORE.norm>
-0.480691

$$$$
conf_1
  RxDock  10202421033D
librxdock.so/0.1.0
 74 80  0  0  0  0  0  0  0  0999 V2000
  -44.3284   17.6893   18.8161 C   0  0  0  0  0  0
  -43.0886   17.5899   17.9483 C   0  0  0  0  0  0
  -43.0591   18.1715   16.5852 C   0  0  0  0  0  0
  -41.5076   17.9346   15.8578 S   0  0  0  0  0  0
  -40.7556   17.0920   17.1798 C   0  0  0  0  0  0
  -41.7469   16.9708   18.2625 C   0  0  0  0  0  0
  -41.4140   16.2526   19.5357 C   0  0  0  0  0  0
  -40.3394   16.4823   20.1200 N   0  0  0  0  0  0
  -39.3020   17.4159   19.6735 C   0  0  0  0  0  0
  -38.7923   16.8053   18.3858 C   0  0  0  0  0  0
  -39.4634   16.6609   17.2595 N   0  0  0  0  0  0
  -38.7427   16.1013   16.2749 C   0  0  0  0  0  0
  -37.5332   15.8760   16.8196 N   0  0  0  0  0  0
  -37.5571   16.3260   18.1766 N   0  0  0  0  0  0
  -39.1281   15.7853   14.8501 C   0  0  0  0  0  0
  -38.2297   17.3132   20.6834 C   0  0  0  0  0  0
  -38.6294   17.4710   22.1696 C   0  0  0  0  0  0
  -38.3570   18.1024   22.9311 O   0  0  0  0  0  0
  -39.5564   16.4310   22.5827 N   0  0  0  0  0  0
  -40.1997   16.2519   23.9138 C   0  0  0  0  0  0
  -40.6942   14.9113   24.1801 C   0  0  0  0  0  0
  -41.4234   14.2912   25.1572 O   0  0  0  0  0  0
  -42.7566   14.1731   24.8639 C   0  0  0  0  0  0
  -43.8296   13.3237   25.4151 C   0  0  0  0  0  0
  -45.1097   13.4813   24.8873 O   0  0  0  0  0  0
  -46.1738   12.7440   25.1241 C   0  0  0  0  0  0
  -47.5996   13.0060   24.9957 C   0  0  0  0  0  0
  -48.4463   13.3512   24.0403 O   0  0  0  0  0  0
  -49.8485   13.6644   24.2883 C   0  0  0  0  0  0
  -49.9190   14.8685   25.2400 C   0  0  0  0  0  0
  -50.9802   15.2179   25.7779 O   0  0  0  0  0  0
  -48.7270   15.4316   25.4055 N   0  0  0  0  0  0
  -48.4291   16.5124   26.3407 C   0  0  0  0  0  0
  -48.0138   17.6958   25.4354 C   0  0  0  0  0  0
  -47.2980   17.5044   24.4627 O   0  0  0  0  0  0
  -48.4640   18.9407   25.7404 N   0  0  0  0  0  0
  -49.3412   19.4450   26.8411 C   0  0  0  0  0  0
  -49.9452   20.7389   26.2520 C   0  0  0  0  0  0
  -48.8332   21.3067   25.4300 C   0  0  0  0  0  0
  -48.0758   20.0941   24.8345 C   0  0  0  0  0  0
  -46.7013   20.4464   24.8309 C   0  0  0  0  0  0
  -46.0105   20.2398   25.8228 O   0  0  0  0  0  0
  -46.2060   21.0098   23.7131 N   0  0  0  0  0  0
  -44.8345   21.4594   23.5811 C   0  0  0  0  0  0
  -44.6806   22.8391   23.9107 C   0  0  0  0  0  0
  -43.4443   23.3733   24.2100 C   0  0  0  0  0  0
  -43.2722   24.7324   24.4725 C   0  0  0  0  0  0
  -44.3533   25.6273   24.4460 C   0  0  0  0  0  0
  -45.6055   25.0981   24.1455 C   0  0  0  0  0  0
  -45.7792   23.7317   23.8811 C   0  0  0  0  0  0
  -44.1775   26.9453   24.6978 C   0  0  0  0  0  0
  -43.2028   27.7389   24.2077 C   0  0  0  0  0  0
  -43.2388   29.0193   24.6103 N   0  0  0  0  0  0
  -44.3323   29.3417   25.3480 C   0  0  0  0  0  0
  -45.1323   27.9255   25.6993 S   0  0  0  0  0  0
  -42.0929   27.2968   23.2385 C   0  0  0  0  0  0
  -51.0621   20.4808   25.4080 O   0  0  0  0  0  0
  -47.3360   16.0424   27.3531 C   0  0  0  0  0  0
  -47.0136   17.1905   28.3041 C   0  0  0  0  0  0
  -46.0282   15.5658   26.6680 C   0  0  0  0  0  0
  -47.8613   14.8649   28.1913 C   0  0  0  0  0  0
  -42.4676   15.3636   20.0798 C   0  0  0  0  0  0
  -43.3501   14.6750   19.2123 C   0  0  0  0  0  0
  -44.3720   13.8580   19.6837 C   0  0  0  0  0  0
  -44.5201   13.7343   21.0291 C   0  0  0  0  0  0
  -43.6611   14.4301   21.8803 C   0  0  0  0  0  0
  -42.6539   15.2261   21.4256 C   0  0  0  0  0  0
  -45.7052   12.6542   21.7787 Cl  0  0  0  0  0  0
  -44.1366   18.8849   15.8022 C   0  0  0  0  0  0
  -39.8370   15.6050   21.9522 H   0  0  0  0  0  0
  -47.8875   15.2113   24.8292 H   0  0  0  0  0  0
  -46.7819   21.1732   22.8281 H   0  0  0  0  0  0
  -42.4870   29.7425   24.3891 H   0  0  0  0  0  0
  -51.7497   21.1544   25.6107 H   0  0  0  0  0  0
  1  2  1  0  0  0
  2  3  2  0  0  0
  3  4  1  0  0  0
  3 69  1  0  0  0
  4  5  1  0  0  0
  5  6  2  0  0  0
  5 11  1  0  0  0
  6  7  1  0  0  0
  6  2  1  0  0  0
  7  8  2  0  0  0
  7 62  1  0  0  0
  8  9  1  0  0  0
  9 10  1  0  0  0
  9 16  1  0  0  0
 10 11  1  0  0  0
 11 12  1  0  0  0
 12 13  2  0  0  0
 12 15  1  0  0  0
 13 14  1  0  0  0
 14 10  2  0  0  0
 16 17  1  0  0  0
 17 18  2  0  0  0
 17 19  1  0  0  0
 19 20  1  0  0  0
 19 70  1  0  0  0
 20 21  1  0  0  0
 21 22  1  0  0  0
 22 23  1  0  0  0
 23 24  1  0  0  0
 24 25  1  0  0  0
 25 26  1  0  0  0
 26 27  1  0  0  0
 27 28  1  0  0  0
 28 29  1  0  0  0
 29 30  1  0  0  0
 30 31  2  0  0  0
 30 32  1  0  0  0
 32 33  1  0  0  0
 32 71  1  0  0  0
 33 34  1  0  0  0
 33 58  1  0  0  0
 34 35  2  0  0  0
 34 36  1  0  0  0
 36 37  1  0  0  0
 37 38  1  0  0  0
 38 39  1  0  0  0
 38 57  1  0  0  0
 39 40  1  0  0  0
 40 41  1  0  0  0
 40 36  1  0  0  0
 41 42  2  0  0  0
 41 43  1  0  0  0
 43 44  1  0  0  0
 43 72  1  0  0  0
 44 45  1  0  0  0
 45 46  2  0  0  0
 46 47  1  0  0  0
 47 48  2  0  0  0
 48 49  1  0  0  0
 48 51  1  0  0  0
 49 50  2  0  0  0
 50 45  1  0  0  0
 51 52  2  0  0  0
 52 53  1  0  0  0
 52 56  1  0  0  0
 53 54  1  0  0  0
 53 73  1  0  0  0
 54 55  1  0  0  0
 55 51  1  0  0  0
 57 74  1  0  0  0
 58 59  1  0  0  0
 58 60  1  0  0  0
 58 61  1  0  0  0
 62 63  2  0  0  0
 63 64  1  0  0  0
 64 65  2  0  0  0
 65 66  1  0  0  0
 65 68  1  0  0  0
 66 67  2  0  0  0
 67 62  1  0  0  0
M  END
>  <CHROM.0>
9.61175700,-1.72897027,-137.46176413,130.54189500,-112.12147481,169.96896524

>  <CHROM.1>
32.56686618,-51.61115825,-121.83202937,-159.58425605,-173.47452764,96.95216568
162.44725164,178.85178243,172.26680500,157.92506396,58.90725426,-173.80504852
60.68426297,-168.76323687,-116.24997813,-41.24193379,178.79457128,137.83046634
-27.95811166,-93.09999474,161.83987351,44.99352535,-44.24703162,18.25374739
22.74321660,-0.88244756,0.74080972,0.17457148

>  <Name>
conf_1

>  <Rbt.Current_Directory>
/home/paula/Documents/testing/tutorial/protac_scoring/protac_mz1/protein_pose_8181

>  <Rbt.Executable>
rbdock/0.1.0

>  <Rbt.Library>
librxdock.so/0.1.0

>  <Rbt.Parameter_File>
/home/paula/Apps/install/miniconda3/envs/p4ward/share/rxdock-2013.1.1_148c5bd1-1/data/scripts/score.prm

>  <Rbt.Receptor>
cavity.prm

>  <SCORE>
-33.2861

>  <SCORE.INTER>
-29.9217

>  <SCORE.INTER.CONST>
1

>  <SCORE.INTER.POLAR>
-2.50311

>  <SCORE.INTER.REPUL>
0.000451443

>  <SCORE.INTER.ROT>
21

>  <SCORE.INTER.VDW>
-47.8134

>  <SCORE.INTER.norm>
-0.433648

>  <SCORE.INTRA>
0

>  <SCORE.INTRA.DIHEDRAL>
0

>  <SCORE.INTRA.DIHEDRAL.0>
35.9076

>  <SCORE.INTRA.POLAR>
0

>  <SCORE.INTRA.POLAR.0>
-0.0939805

>  <SCORE.INTRA.REPUL>
0

>  <SCORE.INTRA.REPUL.0>
0

>  <SCORE.INTRA.VDW>
0

>  <SCORE.INTRA.VDW.0>
-4.15677

>  <SCORE.INTRA.norm>
0

>  <SCORE.RESTR>
0

>  <SCORE.RESTR.CAVITY>
0

>  <SCORE.RESTR.norm>
0

>  <SCORE.SYSTEM>
-3.36443

>  <SCORE.SYSTEM.CONST>
0

>  <SCORE.SYSTEM.DIHEDRAL>
15.6857

>  <SCORE.SYSTEM.POLAR>
-3.77449

>  <SCORE.SYSTEM.VDW>
1.626

>  <SCORE.SYSTEM.norm>
-0.0487598

>  <SCORE.heavy>
69

>  <SCORE.norm>
-0.482408

$$$$
conf_2
  RxDock  10202421033D
librxdock.so/0.1.0
 74 80  0  0  0  0  0  0  0  0999 V2000
  -44.3258   17.6813   18.8256 C   0  0  0  0  0  0
  -43.0910   17.5834   17.9539 C   0  0  0  0  0  0
  -43.0713   18.1679   16.5846 C   0  0  0  0  0  0
  -41.5173   17.9284   15.8568 S   0  0  0  0  0  0
  -40.7630   17.0889   17.1767 C   0  0  0  0  0  0
  -41.7460   16.9617   18.2726 C   0  0  0  0  0  0
  -41.4211   16.2450   19.5277 C   0  0  0  0  0  0
  -40.3210   16.4659   20.1308 N   0  0  0  0  0  0
  -39.3163   17.4070   19.6440 C   0  0  0  0  0  0
  -38.7918   16.8012   18.3829 C   0  0  0  0  0  0
  -39.4769   16.6575   17.2450 N   0  0  0  0  0  0
  -38.7508   16.1002   16.2687 C   0  0  0  0  0  0
  -37.5389   15.8757   16.8137 N   0  0  0  0  0  0
  -37.5603   16.3236   18.1688 N   0  0  0  0  0  0
  -39.1390   15.7835   14.8441 C   0  0  0  0  0  0
  -38.2126   17.4218   20.6631 C   0  0  0  0  0  0
  -38.7265   17.6653   22.0511 C   0  0  0  0  0  0
  -38.2338   17.9379   23.0044 O   0  0  0  0  0  0
  -40.1001   17.4883   22.3648 N   0  0  0  0  0  0
  -40.6001   17.5882   23.7557 C   0  0  0  0  0  0
  -41.7987   17.0588   24.3006 C   0  0  0  0  0  0
  -42.1468   15.7190   24.4993 O   0  0  0  0  0  0
  -43.4890   15.4824   24.6958 C   0  0  0  0  0  0
  -43.9637   14.0592   24.9597 C   0  0  0  0  0  0
  -45.2758   13.8922   24.8867 O   0  0  0  0  0  0
  -46.1766   12.9645   24.9949 C   0  0  0  0  0  0
  -47.6610   13.0514   24.9524 C   0  0  0  0  0  0
  -48.4716   13.4577   23.9869 O   0  0  0  0  0  0
  -49.8980   13.6980   24.2344 C   0  0  0  0  0  0
  -49.9398   14.8831   25.2215 C   0  0  0  0  0  0
  -50.9919   15.2239   25.7744 O   0  0  0  0  0  0
  -48.7440   15.4354   25.3882 N   0  0  0  0  0  0
  -48.4402   16.5128   26.3380 C   0  0  0  0  0  0
  -48.0137   17.6956   25.4334 C   0  0  0  0  0  0
  -47.2955   17.5001   24.4658 O   0  0  0  0  0  0
  -48.4618   18.9409   25.7411 N   0  0  0  0  0  0
  -49.3407   19.4462   26.8392 C   0  0  0  0  0  0
  -49.9434   20.7401   26.2490 C   0  0  0  0  0  0
  -48.8265   21.3057   25.4323 C   0  0  0  0  0  0
  -48.0673   20.0927   24.8386 C   0  0  0  0  0  0
  -46.6911   20.4411   24.8399 C   0  0  0  0  0  0
  -46.0025   20.2336   25.8286 O   0  0  0  0  0  0
  -46.1977   21.0049   23.7199 N   0  0  0  0  0  0
  -44.8267   21.4543   23.5878 C   0  0  0  0  0  0
  -44.6803   22.8373   23.9142 C   0  0  0  0  0  0
  -43.4397   23.3682   24.2120 C   0  0  0  0  0  0
  -43.2658   24.7291   24.4772 C   0  0  0  0  0  0
  -44.3438   25.6237   24.4545 C   0  0  0  0  0  0
  -45.5983   25.0970   24.1560 C   0  0  0  0  0  0
  -45.7755   23.7294   23.8890 C   0  0  0  0  0  0
  -44.1872   26.9467   24.6911 C   0  0  0  0  0  0
  -43.2148   27.7423   24.1933 C   0  0  0  0  0  0
  -43.2702   29.0284   24.5761 N   0  0  0  0  0  0
  -44.2896   29.3250   25.4114 C   0  0  0  0  0  0
  -45.1524   27.9326   25.6745 S   0  0  0  0  0  0
  -42.0929   27.2961   23.2429 C   0  0  0  0  0  0
  -51.0604   20.4848   25.4042 O   0  0  0  0  0  0
  -47.3704   16.0426   27.3536 C   0  0  0  0  0  0
  -47.0412   17.1966   28.3081 C   0  0  0  0  0  0
  -46.0433   15.5911   26.7015 C   0  0  0  0  0  0
  -47.8826   14.8569   28.1775 C   0  0  0  0  0  0
  -42.4564   15.3526   20.0942 C   0  0  0  0  0  0
  -43.3644   14.6938   19.2207 C   0  0  0  0  0  0
  -44.3774   13.8718   19.7008 C   0  0  0  0  0  0
  -44.4832   13.7169   21.0548 C   0  0  0  0  0  0
  -43.5892   14.3760   21.9115 C   0  0  0  0  0  0
  -42.5929   15.1796   21.4470 C   0  0  0  0  0  0
  -45.6834   12.6516   21.7921 Cl  0  0  0  0  0  0
  -44.1422   18.8813   15.8047 C   0  0  0  0  0  0
  -40.8615   17.3951   21.7027 H   0  0  0  0  0  0
  -47.9012   15.2259   24.8195 H   0  0  0  0  0  0
  -46.7773   21.1683   22.8356 H   0  0  0  0  0  0
  -42.5931   29.8040   24.2785 H   0  0  0  0  0  0
  -51.6105   19.8413   25.9368 H   0  0  0  0  0  0
  1  2  1  0  0  0
  2  3  2  0  0  0
  3  4  1  0  0  0
  3 69  1  0  0  0
  4  5  1  0  0  0
  5  6  2  0  0  0
  5 11  1  0  0  0
  6  7  1  0  0  0
  6  2  1  0  0  0
  7  8  2  0  0  0
  7 62  1  0  0  0
  8  9  1  0  0  0
  9 10  1  0  0  0
  9 16  1  0  0  0
 10 11  1  0  0  0
 11 12  1  0  0  0
 12 13  2  0  0  0
 12 15  1  0  0  0
 13 14  1  0  0  0
 14 10  2  0  0  0
 16 17  1  0  0  0
 17 18  2  0  0  0
 17 19  1  0  0  0
 19 20  1  0  0  0
 19 70  1  0  0  0
 20 21  1  0  0  0
 21 22  1  0  0  0
 22 23  1  0  0  0
 23 24  1  0  0  0
 24 25  1  0  0  0
 25 26  1  0  0  0
 26 27  1  0  0  0
 27 28  1  0  0  0
 28 29  1  0  0  0
 29 30  1  0  0  0
 30 31  2  0  0  0
 30 32  1  0  0  0
 32 33  1  0  0  0
 32 71  1  0  0  0
 33 34  1  0  0  0
 33 58  1  0  0  0
 34 35  2  0  0  0
 34 36  1  0  0  0
 36 37  1  0  0  0
 37 38  1  0  0  0
 38 39  1  0  0  0
 38 57  1  0  0  0
 39 40  1  0  0  0
 40 41  1  0  0  0
 40 36  1  0  0  0
 41 42  2  0  0  0
 41 43  1  0  0  0
 43 44  1  0  0  0
 43 72  1  0  0  0
 44 45  1  0  0  0
 45 46  2  0  0  0
 46 47  1  0  0  0
 47 48  2  0  0  0
 48 49  1  0  0  0
 48 51  1  0  0  0
 49 50  2  0  0  0
 50 45  1  0  0  0
 51 52  2  0  0  0
 52 53  1  0  0  0
 52 56  1  0  0  0
 53 54  1  0  0  0
 53 73  1  0  0  0
 54 55  1  0  0  0
 55 51  1  0  0  0
 57 74  1  0  0  0
 58 59  1  0  0  0
 58 60  1  0  0  0
 58 61  1  0  0  0
 62 63  2  0  0  0
 63 64  1  0  0  0
 64 65  2  0  0  0
 65 66  1  0  0  0
 65 68  1  0  0  0
 66 67  2  0  0  0
 67 62  1  0  0  0
M  END
>  <CHROM.0>
9.61175700,-1.72897027,-137.46176413,130.54189500,-112.12147481,169.96896524

>  <CHROM.1>
30.74822028,-51.90360586,-165.94784803,-158.84868736,67.67436485,-162.83310687
-178.31635404,-167.95250860,178.98970918,175.35039951,61.46670702,-168.52927410
64.85578892,-170.17632848,-116.50144342,-41.46392094,178.38236638,46.72486709
-27.93588815,-93.32950042,161.91773288,44.16012144,-44.30393592,18.38037198
22.71730712,-0.86024123,0.73751137,0.22139368

>  <Name>
conf_2

>  <Rbt.Current_Directory>
/home/paula/Documents/testing/tutorial/protac_scoring/protac_mz1/protein_pose_8181

>  <Rbt.Executable>
rbdock/0.1.0

>  <Rbt.Library>
librxdock.so/0.1.0

>  <Rbt.Parameter_File>
/home/paula/Apps/install/miniconda3/envs/p4ward/share/rxdock-2013.1.1_148c5bd1-1/data/scripts/score.prm

>  <Rbt.Receptor>
cavity.prm

>  <SCORE>
0.0132023

>  <SCORE.INTER>
3.37763

>  <SCORE.INTER.CONST>
1

>  <SCORE.INTER.POLAR>
-1.85038

>  <SCORE.INTER.REPUL>
1.06417

>  <SCORE.INTER.ROT>
21

>  <SCORE.INTER.VDW>
-22.0519

>  <SCORE.INTER.norm>
0.0489511

>  <SCORE.INTRA>
0

>  <SCORE.INTRA.DIHEDRAL>
0

>  <SCORE.INTRA.DIHEDRAL.0>
25.4988

>  <SCORE.INTRA.POLAR>
0

>  <SCORE.INTRA.POLAR.0>
-0.196904

>  <SCORE.INTRA.REPUL>
0

>  <SCORE.INTRA.REPUL.0>
0

>  <SCORE.INTRA.VDW>
0

>  <SCORE.INTRA.VDW.0>
2.06382

>  <SCORE.INTRA.norm>
0

>  <SCORE.RESTR>
0

>  <SCORE.RESTR.CAVITY>
0

>  <SCORE.RESTR.norm>
0

>  <SCORE.SYSTEM>
-3.36443

>  <SCORE.SYSTEM.CONST>
0

>  <SCORE.SYSTEM.DIHEDRAL>
15.6857

>  <SCORE.SYSTEM.POLAR>
-3.77449

>  <SCORE.SYSTEM.VDW>
1.626

>  <SCORE.SYSTEM.norm>
-0.0487598

>  <SCORE.heavy>
69

>  <SCORE.norm>
0.000191338

$$$$
conf_3
  RxDock  10202421033D
librxdock.so/0.1.0
 74 80  0  0  0  0  0  0  0  0999 V2000
  -44.3279   17.6836   18.8211 C   0  0  0  0  0  0
  -43.0905   17.5852   17.9516 C   0  0  0  0  0  0
  -43.0638   18.1669   16.5860 C   0  0  0  0  0  0
  -41.5128   17.9301   15.8570 S   0  0  0  0  0  0
  -40.7591   17.0889   17.1790 C   0  0  0  0  0  0
  -41.7486   16.9673   18.2645 C   0  0  0  0  0  0
  -41.4134   16.2510   19.5389 C   0  0  0  0  0  0
  -40.3377   16.4836   20.1183 N   0  0  0  0  0  0
  -39.3061   17.4192   19.6641 C   0  0  0  0  0  0
  -38.7952   16.8064   18.3810 C   0  0  0  0  0  0
  -39.4678   16.6601   17.2547 N   0  0  0  0  0  0
  -38.7479   16.1007   16.2704 C   0  0  0  0  0  0
  -37.5369   15.8771   16.8148 N   0  0  0  0  0  0
  -37.5595   16.3280   18.1707 N   0  0  0  0  0  0
  -39.1354   15.7837   14.8459 C   0  0  0  0  0  0
  -38.2336   17.3328   20.6774 C   0  0  0  0  0  0
  -38.6404   17.4993   22.1463 C   0  0  0  0  0  0
  -38.3313   18.1114   22.9250 O   0  0  0  0  0  0
  -39.6564   16.5221   22.6092 N   0  0  0  0  0  0
  -40.1429   16.5088   23.9648 C   0  0  0  0  0  0
  -40.8995   15.4977   24.6699 C   0  0  0  0  0  0
  -41.9395   14.7943   24.7834 O   0  0  0  0  0  0
  -43.2311   14.8250   24.9792 C   0  0  0  0  0  0
  -44.0047   13.4874   24.9959 C   0  0  0  0  0  0
  -45.3156   13.5454   24.9882 O   0  0  0  0  0  0
  -46.3003   12.7174   25.0632 C   0  0  0  0  0  0
  -47.7568   12.9315   24.9991 C   0  0  0  0  0  0
  -48.5028   13.4124   24.0012 O   0  0  0  0  0  0
  -49.9165   13.7117   24.2238 C   0  0  0  0  0  0
  -49.9376   14.8860   25.2228 C   0  0  0  0  0  0
  -50.9883   15.2290   25.7790 O   0  0  0  0  0  0
  -48.7350   15.4295   25.3943 N   0  0  0  0  0  0
  -48.4306   16.5070   26.3415 C   0  0  0  0  0  0
  -48.0106   17.6939   25.4372 C   0  0  0  0  0  0
  -47.2936   17.5017   24.4653 O   0  0  0  0  0  0
  -48.4594   18.9383   25.7454 N   0  0  0  0  0  0
  -49.3363   19.4440   26.8462 C   0  0  0  0  0  0
  -49.9404   20.7387   26.2578 C   0  0  0  0  0  0
  -48.8285   21.3051   25.4354 C   0  0  0  0  0  0
  -48.0710   20.0931   24.8391 C   0  0  0  0  0  0
  -46.6957   20.4436   24.8372 C   0  0  0  0  0  0
  -46.0059   20.2368   25.8274 O   0  0  0  0  0  0
  -46.2023   21.0072   23.7170 N   0  0  0  0  0  0
  -44.8312   21.4571   23.5838 C   0  0  0  0  0  0
  -44.6787   22.8378   23.9116 C   0  0  0  0  0  0
  -43.4461   23.3749   24.2093 C   0  0  0  0  0  0
  -43.2705   24.7313   24.4725 C   0  0  0  0  0  0
  -44.3529   25.6263   24.4474 C   0  0  0  0  0  0
  -45.6037   25.0976   24.1486 C   0  0  0  0  0  0
  -45.7779   23.7298   23.8835 C   0  0  0  0  0  0
  -44.1798   26.9450   24.6973 C   0  0  0  0  0  0
  -43.2082   27.7406   24.2054 C   0  0  0  0  0  0
  -43.2451   29.0209   24.6044 N   0  0  0  0  0  0
  -44.3325   29.3410   25.3506 C   0  0  0  0  0  0
  -45.1341   27.9251   25.6994 S   0  0  0  0  0  0
  -42.0970   27.2980   23.2360 C   0  0  0  0  0  0
  -51.0581   20.4838   25.4122 O   0  0  0  0  0  0
  -47.3373   16.0359   27.3488 C   0  0  0  0  0  0
  -47.0182   17.1835   28.3039 C   0  0  0  0  0  0
  -46.0342   15.5684   26.6707 C   0  0  0  0  0  0
  -47.8652   14.8543   28.1799 C   0  0  0  0  0  0
  -42.4577   15.3605   20.0980 C   0  0  0  0  0  0
  -43.3515   14.6823   19.2205 C   0  0  0  0  0  0
  -44.3668   13.8611   19.6981 C   0  0  0  0  0  0
  -44.4952   13.7211   21.0480 C   0  0  0  0  0  0
  -43.6236   14.3993   21.9071 C   0  0  0  0  0  0
  -42.6213   15.2063   21.4437 C   0  0  0  0  0  0
  -45.6952   12.6515   21.7895 Cl  0  0  0  0  0  0
  -44.1400   18.8817   15.8032 C   0  0  0  0  0  0
  -39.9855   15.7457   22.0070 H   0  0  0  0  0  0
  -47.8956   15.1851   24.8376 H   0  0  0  0  0  0
  -46.7790   21.1704   22.8309 H   0  0  0  0  0  0
  -42.4992   29.7545   24.3775 H   0  0  0  0  0  0
  -51.8368   20.3063   25.9886 H   0  0  0  0  0  0
  1  2  1  0  0  0
  2  3  2  0  0  0
  3  4  1  0  0  0
  3 69  1  0  0  0
  4  5  1  0  0  0
  5  6  2  0  0  0
  5 11  1  0  0  0
  6  7  1  0  0  0
  6  2  1  0  0  0
  7  8  2  0  0  0
  7 62  1  0  0  0
  8  9  1  0  0  0
  9 10  1  0  0  0
  9 16  1  0  0  0
 10 11  1  0  0  0
 11 12  1  0  0  0
 12 13  2  0  0  0
 12 15  1  0  0  0
 13 14  1  0  0  0
 14 10  2  0  0  0
 16 17  1  0  0  0
 17 18  2  0  0  0
 17 19  1  0  0  0
 19 20  1  0  0  0
 19 70  1  0  0  0
 20 21  1  0  0  0
 21 22  1  0  0  0
 22 23  1  0  0  0
 23 24  1  0  0  0
 24 25  1  0  0  0
 25 26  1  0  0  0
 26 27  1  0  0  0
 27 28  1  0  0  0
 28 29  1  0  0  0
 29 30  1  0  0  0
 30 31  2  0  0  0
 30 32  1  0  0  0
 32 33  1  0  0  0
 32 71  1  0  0  0
 33 34  1  0  0  0
 33 58  1  0  0  0
 34 35  2  0  0  0
 34 36  1  0  0  0
 36 37  1  0  0  0
 37 38  1  0  0  0
 38 39  1  0  0  0
 38 57  1  0  0  0
 39 40  1  0  0  0
 40 41  1  0  0  0
 40 36  1  0  0  0
 41 42  2  0  0  0
 41 43  1  0  0  0
 43 44  1  0  0  0
 43 72  1  0  0  0
 44 45  1  0  0  0
 45 46  2  0  0  0
 46 47  1  0  0  0
 47 48  2  0  0  0
 48 49  1  0  0  0
 48 51  1  0  0  0
 49 50  2  0  0  0
 50 45  1  0  0  0
 51 52  2  0  0  0
 52 53  1  0  0  0
 52 56  1  0  0  0
 53 54  1  0  0  0
 53 73  1  0  0  0
 54 55  1  0  0  0
 55 51  1  0  0  0
 57 74  1  0  0  0
 58 59  1  0  0  0
 58 60  1  0  0  0
 58 61  1  0  0  0
 62 63  2  0  0  0
 63 64  1  0  0  0
 64 65  2  0  0  0
 65 66  1  0  0  0
 65 68  1  0  0  0
 66 67  2  0  0  0
 67 62  1  0  0  0
M  END
>  <CHROM.0>
9.61175700,-1.72897027,-137.46176413,130.54189500,-112.12147481,169.96896524

>  <CHROM.1>
31.74264751,-51.50898321,-126.30614762,-165.78998272,-60.84868243,-62.80576930
179.23679571,-169.82733278,-175.58736684,-177.85344940,62.45712127,-171.53969629
66.24251194,-168.07023979,-115.59964100,-41.48629734,178.83465825,78.08670304
-27.98138605,-93.16887703,161.85843449,44.97233716,-44.27612376,18.28595567
22.74170441,-0.87514133,0.73860923,0.19247503

>  <Name>
conf_3

>  <Rbt.Current_Directory>
/home/paula/Documents/testing/tutorial/protac_scoring/protac_mz1/protein_pose_8181

>  <Rbt.Executable>
rbdock/0.1.0

>  <Rbt.Library>
librxdock.so/0.1.0

>  <Rbt.Parameter_File>
/home/paula/Apps/install/miniconda3/envs/p4ward/share/rxdock-2013.1.1_148c5bd1-1/data/scripts/score.prm

>  <Rbt.Receptor>
cavity.prm

>  <SCORE>
-1.04843

>  <SCORE.INTER>
2.316

>  <SCORE.INTER.CONST>
1

>  <SCORE.INTER.POLAR>
-1.84864

>  <SCORE.INTER.REPUL>
1.16617

>  <SCORE.INTER.ROT>
21

>  <SCORE.INTER.VDW>
-23.6295

>  <SCORE.INTER.norm>
0.0335652

>  <SCORE.INTRA>
0

>  <SCORE.INTRA.DIHEDRAL>
0

>  <SCORE.INTRA.DIHEDRAL.0>
23.6169

>  <SCORE.INTRA.POLAR>
0

>  <SCORE.INTRA.POLAR.0>
-0.173217

>  <SCORE.INTRA.REPUL>
0

>  <SCORE.INTRA.REPUL.0>
0

>  <SCORE.INTRA.VDW>
0

>  <SCORE.INTRA.VDW.0>
-4.14908

>  <SCORE.INTRA.norm>
0

>  <SCORE.RESTR>
0

>  <SCORE.RESTR.CAVITY>
0

>  <SCORE.RESTR.norm>
0

>  <SCORE.SYSTEM>
-3.36443

>  <SCORE.SYSTEM.CONST>
0

>  <SCORE.SYSTEM.DIHEDRAL>
15.6857

>  <SCORE.SYSTEM.POLAR>
-3.77449

>  <SCORE.SYSTEM.VDW>
1.626

>  <SCORE.SYSTEM.norm>
-0.0487598

>  <SCORE.heavy>
69

>  <SCORE.norm>
-0.0151946

$$$$
conf_4
  RxDock  10202421033D
librxdock.so/0.1.0
 74 80  0  0  0  0  0  0  0  0999 V2000
  -44.3303   17.6857   18.8179 C   0  0  0  0  0  0
  -43.0914   17.5888   17.9479 C   0  0  0  0  0  0
  -43.0629   18.1695   16.5843 C   0  0  0  0  0  0
  -41.5109   17.9323   15.8558 S   0  0  0  0  0  0
  -40.7584   17.0916   17.1774 C   0  0  0  0  0  0
  -41.7500   16.9713   18.2596 C   0  0  0  0  0  0
  -41.4171   16.2558   19.5322 C   0  0  0  0  0  0
  -40.3414   16.4842   20.1163 N   0  0  0  0  0  0
  -39.3040   17.4150   19.6686 C   0  0  0  0  0  0
  -38.7914   16.8057   18.3851 C   0  0  0  0  0  0
  -39.4652   16.6619   17.2570 N   0  0  0  0  0  0
  -38.7463   16.1028   16.2712 C   0  0  0  0  0  0
  -37.5352   15.8772   16.8163 N   0  0  0  0  0  0
  -37.5588   16.3262   18.1717 N   0  0  0  0  0  0
  -39.1326   15.7852   14.8468 C   0  0  0  0  0  0
  -38.2373   17.3133   20.6918 C   0  0  0  0  0  0
  -38.6446   17.4889   22.1576 C   0  0  0  0  0  0
  -38.3318   18.1034   22.9315 O   0  0  0  0  0  0
  -39.6697   16.5172   22.6154 N   0  0  0  0  0  0
  -40.1740   16.4968   23.9521 C   0  0  0  0  0  0
  -41.0154   15.5788   24.6881 C   0  0  0  0  0  0
  -42.2166   15.1037   24.5770 O   0  0  0  0  0  0
  -42.8859   14.3062   25.5473 C   0  0  0  0  0  0
  -44.2100   13.8368   24.9763 C   0  0  0  0  0  0
  -45.2602   13.2391   25.0927 O   0  0  0  0  0  0
  -46.3073   12.6038   25.2193 C   0  0  0  0  0  0
  -47.7676   12.9101   25.1184 C   0  0  0  0  0  0
  -48.4615   13.3434   24.0817 O   0  0  0  0  0  0
  -49.8912   13.6908   24.2515 C   0  0  0  0  0  0
  -49.9329   14.8779   25.2282 C   0  0  0  0  0  0
  -50.9888   15.2279   25.7716 O   0  0  0  0  0  0
  -48.7298   15.4272   25.4012 N   0  0  0  0  0  0
  -48.4314   16.5077   26.3378 C   0  0  0  0  0  0
  -48.0128   17.6950   25.4345 C   0  0  0  0  0  0
  -47.2957   17.5025   24.4634 O   0  0  0  0  0  0
  -48.4621   18.9388   25.7414 N   0  0  0  0  0  0
  -49.3393   19.4445   26.8412 C   0  0  0  0  0  0
  -49.9432   20.7387   26.2535 C   0  0  0  0  0  0
  -48.8299   21.3058   25.4325 C   0  0  0  0  0  0
  -48.0727   20.0931   24.8367 C   0  0  0  0  0  0
  -46.6969   20.4437   24.8363 C   0  0  0  0  0  0
  -46.0078   20.2374   25.8257 O   0  0  0  0  0  0
  -46.2037   21.0080   23.7156 N   0  0  0  0  0  0
  -44.8325   21.4577   23.5834 C   0  0  0  0  0  0
  -44.6807   22.8377   23.9110 C   0  0  0  0  0  0
  -43.4477   23.3755   24.2085 C   0  0  0  0  0  0
  -43.2712   24.7317   24.4712 C   0  0  0  0  0  0
  -44.3559   25.6279   24.4463 C   0  0  0  0  0  0
  -45.6033   25.0982   24.1483 C   0  0  0  0  0  0
  -45.7786   23.7309   23.8835 C   0  0  0  0  0  0
  -44.1794   26.9451   24.6966 C   0  0  0  0  0  0
  -43.2038   27.7388   24.2076 C   0  0  0  0  0  0
  -43.2413   29.0186   24.6092 N   0  0  0  0  0  0
  -44.3296   29.3410   25.3534 C   0  0  0  0  0  0
  -45.1337   27.9261   25.6984 S   0  0  0  0  0  0
  -42.0926   27.2962   23.2410 C   0  0  0  0  0  0
  -51.0596   20.4830   25.4096 O   0  0  0  0  0  0
  -47.3444   16.0448   27.3548 C   0  0  0  0  0  0
  -47.0161   17.1883   28.3037 C   0  0  0  0  0  0
  -46.0356   15.5682   26.6702 C   0  0  0  0  0  0
  -47.8633   14.8627   28.1901 C   0  0  0  0  0  0
  -42.4699   15.3659   20.0762 C   0  0  0  0  0  0
  -43.3629   14.6830   19.2102 C   0  0  0  0  0  0
  -44.3739   13.8580   19.6967 C   0  0  0  0  0  0
  -44.4921   13.7239   21.0524 C   0  0  0  0  0  0
  -43.6214   14.4080   21.8884 C   0  0  0  0  0  0
  -42.6250   15.2182   21.4202 C   0  0  0  0  0  0
  -45.6790   12.6450   21.8156 Cl  0  0  0  0  0  0
  -44.1401   18.8840   15.8022 C   0  0  0  0  0  0
  -39.9846   15.7397   21.9990 H   0  0  0  0  0  0
  -47.8898   15.1767   24.8385 H   0  0  0  0  0  0
  -46.7826   21.1722   22.8310 H   0  0  0  0  0  0
  -42.4932   29.7486   24.3845 H   0  0  0  0  0  0
  -51.8428   20.2415   25.9654 H   0  0  0  0  0  0
  1  2  1  0  0  0
  2  3  2  0  0  0
  3  4  1  0  0  0
  3 69  1  0  0  0
  4  5  1  0  0  0
  5  6  2  0  0  0
  5 11  1  0  0  0
  6  7  1  0  0  0
  6  2  1  0  0  0
  7  8  2  0  0  0
  7 62  1  0  0  0
  8  9  1  0  0  0
  9 10  1  0  0  0
  9 16  1  0  0  0
 10 11  1  0  0  0
 11 12  1  0  0  0
 12 13  2  0  0  0
 12 15  1  0  0  0
 13 14  1  0  0  0
 14 10  2  0  0  0
 16 17  1  0  0  0
 17 18  2  0  0  0
 17 19  1  0  0  0
 19 20  1  0  0  0
 19 70  1  0  0  0
 20 21  1  0  0  0
 21 22  1  0  0  0
 22 23  1  0  0  0
 23 24  1  0  0  0
 24 25  1  0  0  0
 25 26  1  0  0  0
 26 27  1  0  0  0
 27 28  1  0  0  0
 28 29  1  0  0  0
 29 30  1  0  0  0
 30 31  2  0  0  0
 30 32  1  0  0  0
 32 33  1  0  0  0
 32 71  1  0  0  0
 33 34  1  0  0  0
 33 58  1  0  0  0
 34 35  2  0  0  0
 34 36  1  0  0  0
 36 37  1  0  0  0
 37 38  1  0  0  0
 38 39  1  0  0  0
 38 57  1  0  0  0
 39 40  1  0  0  0
 40 41  1  0  0  0
 40 36  1  0  0  0
 41 42  2  0  0  0
 41 43  1  0  0  0
 43 44  1  0  0  0
 43 72  1  0  0  0
 44 45  1  0  0  0
 45 46  2  0  0  0
 46 47  1  0  0  0
 47 48  2  0  0  0
 48 49  1  0  0  0
 48 51  1  0  0  0
 49 50  2  0  0  0
 50 45  1  0  0  0
 51 52  2  0  0  0
 52 53  1  0  0  0
 52 56  1  0  0  0
 53 54  1  0  0  0
 53 73  1  0  0  0
 54 55  1  0  0  0
 55 51  1  0  0  0
 57 74  1  0  0  0
 58 59  1  0  0  0
 58 60  1  0  0  0
 58 61  1  0  0  0
 62 63  2  0  0  0
 63 64  1  0  0  0
 64 65  2  0  0  0
 65 66  1  0  0  0
 65 68  1  0  0  0
 66 67  2  0  0  0
 67 62  1  0  0  0
M  END
>  <CHROM.0>
9.61175700,-1.72897027,-137.46176413,130.54189500,-112.12147481,169.96896524

>  <CHROM.1>
31.92259005,-52.15694147,-125.64328989,-170.55745232,-59.67955386,-172.08748003
-174.13139563,-177.80036273,-56.43559056,177.77441590,61.43018515,-174.70936549
63.72458980,-165.63562698,-115.46670488,-41.25118008,178.60594826,74.34151906
-27.99606834,-93.21437828,161.92517490,44.77455482,-44.27908010,18.28133621
22.75359803,-0.87314802,0.74289658,0.18893494

>  <Name>
conf_4

>  <Rbt.Current_Directory>
/home/paula/Documents/testing/tutorial/protac_scoring/protac_mz1/protein_pose_8181

>  <Rbt.Executable>
rbdock/0.1.0

>  <Rbt.Library>
librxdock.so/0.1.0

>  <Rbt.Parameter_File>
/home/paula/Apps/install/miniconda3/envs/p4ward/share/rxdock-2013.1.1_148c5bd1-1/data/scripts/score.prm

>  <Rbt.Receptor>
cavity.prm

>  <SCORE>
-0.178004

>  <SCORE.INTER>
3.18642

>  <SCORE.INTER.CONST>
1

>  <SCORE.INTER.POLAR>
-1.8542

>  <SCORE.INTER.REPUL>
1.21298

>  <SCORE.INTER.ROT>
21

>  <SCORE.INTER.VDW>
-22.9742

>  <SCORE.INTER.norm>
0.04618

>  <SCORE.INTRA>
0

>  <SCORE.INTRA.DIHEDRAL>
0

>  <SCORE.INTRA.DIHEDRAL.0>
22.6642

>  <SCORE.INTRA.POLAR>
0

>  <SCORE.INTRA.POLAR.0>
-0.179927

>  <SCORE.INTRA.REPUL>
0

>  <SCORE.INTRA.REPUL.0>
0

>  <SCORE.INTRA.VDW>
0

>  <SCORE.INTRA.VDW.0>
-4.67365

>  <SCORE.INTRA.norm>
0

>  <SCORE.RESTR>
0

>  <SCORE.RESTR.CAVITY>
0

>  <SCORE.RESTR.norm>
0

>  <SCORE.SYSTEM>
-3.36443

>  <SCORE.SYSTEM.CONST>
0

>  <SCORE.SYSTEM.DIHEDRAL>
15.6857

>  <SCORE.SYSTEM.POLAR>
-3.77449

>  <SCORE.SYSTEM.VDW>
1.626

>  <SCORE.SYSTEM.norm>
-0.0487598

>  <SCORE.heavy>
69

>  <SCORE.norm>
-0.00257977

$$$$
conf_5
  RxDock  10202421033D
librxdock.so/0.1.0
 74 80  0  0  0  0  0  0  0  0999 V2000
  -44.3305   17.6863   18.8171 C   0  0  0  0  0  0
  -43.0918   17.5892   17.9472 C   0  0  0  0  0  0
  -43.0638   18.1689   16.5847 C   0  0  0  0  0  0
  -41.5126   17.9327   15.8559 S   0  0  0  0  0  0
  -40.7595   17.0928   17.1766 C   0  0  0  0  0  0
  -41.7499   16.9728   18.2585 C   0  0  0  0  0  0
  -41.4166   16.2569   19.5314 C   0  0  0  0  0  0
  -40.3411   16.4871   20.1156 N   0  0  0  0  0  0
  -39.3035   17.4193   19.6697 C   0  0  0  0  0  0
  -38.7947   16.8074   18.3811 C   0  0  0  0  0  0
  -39.4661   16.6620   17.2560 N   0  0  0  0  0  0
  -38.7477   16.1020   16.2697 C   0  0  0  0  0  0
  -37.5367   15.8777   16.8146 N   0  0  0  0  0  0
  -37.5594   16.3287   18.1721 N   0  0  0  0  0  0
  -39.1337   15.7841   14.8466 C   0  0  0  0  0  0
  -38.2295   17.3183   20.6763 C   0  0  0  0  0  0
  -38.6221   17.4760   22.1616 C   0  0  0  0  0  0
  -38.3531   18.0994   22.9307 O   0  0  0  0  0  0
  -39.5558   16.4268   22.5599 N   0  0  0  0  0  0
  -40.1769   16.2516   23.8844 C   0  0  0  0  0  0
  -40.9107   14.9770   24.0445 C   0  0  0  0  0  0
  -41.7250   14.6457   25.1125 O   0  0  0  0  0  0
  -42.5610   13.5009   24.7799 C   0  0  0  0  0  0
  -43.9964   13.7173   25.2331 C   0  0  0  0  0  0
  -45.0103   12.9684   24.9966 O   0  0  0  0  0  0
  -46.2254   12.6107   25.1125 C   0  0  0  0  0  0
  -47.6265   12.9565   24.9928 C   0  0  0  0  0  0
  -48.4552   13.3511   24.0326 O   0  0  0  0  0  0
  -49.8590   13.6723   24.2755 C   0  0  0  0  0  0
  -49.9268   14.8719   25.2316 C   0  0  0  0  0  0
  -50.9854   15.2204   25.7721 O   0  0  0  0  0  0
  -48.7346   15.4358   25.3980 N   0  0  0  0  0  0
  -48.4391   16.5143   26.3337 C   0  0  0  0  0  0
  -48.0167   17.6976   25.4317 C   0  0  0  0  0  0
  -47.2985   17.5047   24.4611 O   0  0  0  0  0  0
  -48.4650   18.9427   25.7396 N   0  0  0  0  0  0
  -49.3421   19.4454   26.8393 C   0  0  0  0  0  0
  -49.9457   20.7396   26.2510 C   0  0  0  0  0  0
  -48.8328   21.3069   25.4289 C   0  0  0  0  0  0
  -48.0735   20.0953   24.8361 C   0  0  0  0  0  0
  -46.6986   20.4459   24.8338 C   0  0  0  0  0  0
  -46.0091   20.2383   25.8248 O   0  0  0  0  0  0
  -46.2038   21.0097   23.7146 N   0  0  0  0  0  0
  -44.8321   21.4586   23.5835 C   0  0  0  0  0  0
  -44.6791   22.8386   23.9127 C   0  0  0  0  0  0
  -43.4400   23.3704   24.2128 C   0  0  0  0  0  0
  -43.2728   24.7325   24.4752 C   0  0  0  0  0  0
  -44.3500   25.6265   24.4486 C   0  0  0  0  0  0
  -45.6032   25.0985   24.1472 C   0  0  0  0  0  0
  -45.7781   23.7310   23.8824 C   0  0  0  0  0  0
  -44.1767   26.9451   24.7002 C   0  0  0  0  0  0
  -43.2009   27.7383   24.2089 C   0  0  0  0  0  0
  -43.2375   29.0189   24.6099 N   0  0  0  0  0  0
  -44.3283   29.3407   25.3536 C   0  0  0  0  0  0
  -45.1315   27.9253   25.7002 S   0  0  0  0  0  0
  -42.0909   27.2957   23.2427 C   0  0  0  0  0  0
  -51.0621   20.4838   25.4054 O   0  0  0  0  0  0
  -47.3446   16.0456   27.3478 C   0  0  0  0  0  0
  -47.0113   17.1851   28.3023 C   0  0  0  0  0  0
  -46.0605   15.5469   26.6523 C   0  0  0  0  0  0
  -47.8683   14.8673   28.1887 C   0  0  0  0  0  0
  -42.4776   15.3701   20.0697 C   0  0  0  0  0  0
  -43.3560   14.6710   19.2123 C   0  0  0  0  0  0
  -44.3577   13.8459   19.7108 C   0  0  0  0  0  0
  -44.4863   13.7249   21.0671 C   0  0  0  0  0  0
  -43.6286   14.4316   21.9140 C   0  0  0  0  0  0
  -42.6498   15.2344   21.4107 C   0  0  0  0  0  0
  -45.6730   12.6449   21.8115 Cl  0  0  0  0  0  0
  -44.1414   18.8820   15.8018 C   0  0  0  0  0  0
  -39.8351   15.6141   21.9170 H   0  0  0  0  0  0
  -47.8988   15.2138   24.8165 H   0  0  0  0  0  0
  -46.7810   21.1735   22.8289 H   0  0  0  0  0  0
  -42.4932   29.7466   24.3889 H   0  0  0  0  0  0
  -51.7019   19.9110   25.9115 H   0  0  0  0  0  0
  1  2  1  0  0  0
  2  3  2  0  0  0
  3  4  1  0  0  0
  3 69  1  0  0  0
  4  5  1  0  0  0
  5  6  2  0  0  0
  5 11  1  0  0  0
  6  7  1  0  0  0
  6  2  1  0  0  0
  7  8  2  0  0  0
  7 62  1  0  0  0
  8  9  1  0  0  0
  9 10  1  0  0  0
  9 16  1  0  0  0
 10 11  1  0  0  0
 11 12  1  0  0  0
 12 13  2  0  0  0
 12 15  1  0  0  0
 13 14  1  0  0  0
 14 10  2  0  0  0
 16 17  1  0  0  0
 17 18  2  0  0  0
 17 19  1  0  0  0
 19 20  1  0  0  0
 19 70  1  0  0  0
 20 21  1  0  0  0
 21 22  1  0  0  0
 22 23  1  0  0  0
 23 24  1  0  0  0
 24 25  1  0  0  0
 25 26  1  0  0  0
 26 27  1  0  0  0
 27 28  1  0  0  0
 28 29  1  0  0  0
 29 30  1  0  0  0
 30 31  2  0  0  0
 30 32  1  0  0  0
 32 33  1  0  0  0
 32 71  1  0  0  0
 33 34  1  0  0  0
 33 58  1  0  0  0
 34 35  2  0  0  0
 34 36  1  0  0  0
 36 37  1  0  0  0
 37 38  1  0  0  0
 38 39  1  0  0  0
 38 57  1  0  0  0
 39 40  1  0  0  0
 40 41  1  0  0  0
 40 36  1  0  0  0
 41 42  2  0  0  0
 41 43  1  0  0  0
 43 44  1  0  0  0
 43 72  1  0  0  0
 44 45  1  0  0  0
 45 46  2  0  0  0
 46 47  1  0  0  0
 47 48  2  0  0  0
 48 49  1  0  0  0
 48 51  1  0  0  0
 49 50  2  0  0  0
 50 45  1  0  0  0
 51 52  2  0  0  0
 52 53  1  0  0  0
 52 56  1  0  0  0
 53 54  1  0  0  0
 53 73  1  0  0  0
 54 55  1  0  0  0
 55 51  1  0  0  0
 57 74  1  0  0  0
 58 59  1  0  0  0
 58 60  1  0  0  0
 58 61  1  0  0  0
 62 63  2  0  0  0
 63 64  1  0  0  0
 64 65  2  0  0  0
 65 66  1  0  0  0
 65 68  1  0  0  0
 66 67  2  0  0  0
 67 62  1  0  0  0
M  END
>  <CHROM.0>
9.61175700,-1.72897027,-137.46176413,130.54189500,-112.12147481,169.96896524

>  <CHROM.1>
33.16928857,-51.59247346,-122.08181988,-170.81869639,-170.88195491,164.41009376
-135.70078830,173.35402837,174.20353132,56.22177617,60.31308040,-177.66534970
62.78451956,-168.30181821,-116.56161718,-41.10700623,178.56264064,52.09774646
-27.97090161,-93.15479006,161.84421662,44.98013979,-44.25322398,18.24411201
22.73846046,-0.89143457,0.74132412,0.17566533

>  <Name>
conf_5

>  <Rbt.Current_Directory>
/home/paula/Documents/testing/tutorial/protac_scoring/protac_mz1/protein_pose_8181

>  <Rbt.Executable>
rbdock/0.1.0

>  <Rbt.Library>
librxdock.so/0.1.0

>  <Rbt.Parameter_File>
/home/paula/Apps/install/miniconda3/envs/p4ward/share/rxdock-2013.1.1_148c5bd1-1/data/scripts/score.prm

>  <Rbt.Receptor>
cavity.prm

>  <SCORE>
-0.160372

>  <SCORE.INTER>
3.20405

>  <SCORE.INTER.CONST>
1

>  <SCORE.INTER.POLAR>
-1.85241

>  <SCORE.INTER.REPUL>
1.14816

>  <SCORE.INTER.ROT>
21

>  <SCORE.INTER.VDW>
-22.6385

>  <SCORE.INTER.norm>
0.0464356

>  <SCORE.INTRA>
0

>  <SCORE.INTRA.DIHEDRAL>
0

>  <SCORE.INTRA.DIHEDRAL.0>
29.4476

>  <SCORE.INTRA.POLAR>
0

>  <SCORE.INTRA.POLAR.0>
-0.108805

>  <SCORE.INTRA.REPUL>
0

>  <SCORE.INTRA.REPUL.0>
0

>  <SCORE.INTRA.VDW>
0

>  <SCORE.INTRA.VDW.0>
-4.71391

>  <SCORE.INTRA.norm>
0

>  <SCORE.RESTR>
0

>  <SCORE.RESTR.CAVITY>
0

>  <SCORE.RESTR.norm>
0

>  <SCORE.SYSTEM>
-3.36443

>  <SCORE.SYSTEM.CONST>
0

>  <SCORE.SYSTEM.DIHEDRAL>
15.6857

>  <SCORE.SYSTEM.POLAR>
-3.77449

>  <SCORE.SYSTEM.VDW>
1.626

>  <SCORE.SYSTEM.norm>
-0.0487598

>  <SCORE.heavy>
69

>  <SCORE.norm>
-0.00232423

$$$$
conf_6
  RxDock  10202421033D
librxdock.so/0.1.0
 74 80  0  0  0  0  0  0  0  0999 V2000
  -44.3086   17.6809   18.8270 C   0  0  0  0  0  0
  -43.0896   17.5780   17.9400 C   0  0  0  0  0  0
  -43.0786   18.1552   16.5856 C   0  0  0  0  0  0
  -41.5314   17.9220   15.8477 S   0  0  0  0  0  0
  -40.7766   17.0833   17.1739 C   0  0  0  0  0  0
  -41.7502   16.9554   18.2687 C   0  0  0  0  0  0
  -41.4258   16.2491   19.5331 C   0  0  0  0  0  0
  -40.3166   16.4712   20.1354 N   0  0  0  0  0  0
  -39.3175   17.3981   19.6193 C   0  0  0  0  0  0
  -38.8022   16.7999   18.3630 C   0  0  0  0  0  0
  -39.4921   16.6548   17.2291 N   0  0  0  0  0  0
  -38.7627   16.0995   16.2553 C   0  0  0  0  0  0
  -37.5510   15.8802   16.7962 N   0  0  0  0  0  0
  -37.5673   16.3255   18.1442 N   0  0  0  0  0  0
  -39.1634   15.7858   14.8242 C   0  0  0  0  0  0
  -38.1823   17.4549   20.6273 C   0  0  0  0  0  0
  -38.7655   17.8243   21.9732 C   0  0  0  0  0  0
  -38.2749   17.8475   22.9994 O   0  0  0  0  0  0
  -40.1568   18.1577   21.9617 N   0  0  0  0  0  0
  -40.9724   18.4599   23.1067 C   0  0  0  0  0  0
  -42.4158   18.5641   23.1262 C   0  0  0  0  0  0
  -43.3732   17.7279   22.9084 O   0  0  0  0  0  0
  -44.5444   17.3172   22.8550 C   0  0  0  0  0  0
  -45.7629   17.4339   22.0581 C   0  0  0  0  0  0
  -46.9296   16.7958   22.2620 O   0  0  0  0  0  0
  -47.2663   15.5341   22.2664 C   0  0  0  0  0  0
  -48.5222   14.7892   22.3640 C   0  0  0  0  0  0
  -49.5614   14.4613   22.9100 O   0  0  0  0  0  0
  -50.1666   13.9312   23.9807 C   0  0  0  0  0  0
  -49.9950   14.9402   25.1516 C   0  0  0  0  0  0
  -50.9736   15.2222   25.8262 O   0  0  0  0  0  0
  -48.7792   15.4334   25.3279 N   0  0  0  0  0  0
  -48.4316   16.4703   26.3376 C   0  0  0  0  0  0
  -47.9965   17.6961   25.4623 C   0  0  0  0  0  0
  -47.2708   17.5059   24.5337 O   0  0  0  0  0  0
  -48.4474   18.9346   25.7641 N   0  0  0  0  0  0
  -49.3352   19.4403   26.8525 C   0  0  0  0  0  0
  -49.9354   20.7402   26.2702 C   0  0  0  0  0  0
  -48.8204   21.3058   25.4386 C   0  0  0  0  0  0
  -48.0592   20.0927   24.8587 C   0  0  0  0  0  0
  -46.6851   20.4421   24.8476 C   0  0  0  0  0  0
  -46.0033   20.2359   25.8325 O   0  0  0  0  0  0
  -46.1978   21.0037   23.7188 N   0  0  0  0  0  0
  -44.8255   21.4549   23.5851 C   0  0  0  0  0  0
  -44.6820   22.8383   23.9139 C   0  0  0  0  0  0
  -43.4403   23.3721   24.2070 C   0  0  0  0  0  0
  -43.2707   24.7308   24.4703 C   0  0  0  0  0  0
  -44.3498   25.6226   24.4515 C   0  0  0  0  0  0
  -45.6014   25.0958   24.1584 C   0  0  0  0  0  0
  -45.7774   23.7306   23.8934 C   0  0  0  0  0  0
  -44.1927   26.9483   24.6863 C   0  0  0  0  0  0
  -43.2237   27.7458   24.1917 C   0  0  0  0  0  0
  -43.2760   29.0313   24.5700 N   0  0  0  0  0  0
  -44.2704   29.3169   25.4437 C   0  0  0  0  0  0
  -45.1622   27.9358   25.6697 S   0  0  0  0  0  0
  -42.1026   27.3006   23.2311 C   0  0  0  0  0  0
  -51.0523   20.4913   25.4239 O   0  0  0  0  0  0
  -47.3489   16.0113   27.3236 C   0  0  0  0  0  0
  -47.0201   17.1545   28.2891 C   0  0  0  0  0  0
  -46.0663   15.5148   26.6204 C   0  0  0  0  0  0
  -47.8870   14.8261   28.1493 C   0  0  0  0  0  0
  -42.4370   15.3468   20.1330 C   0  0  0  0  0  0
  -43.3434   14.6652   19.2606 C   0  0  0  0  0  0
  -44.3243   13.8353   19.7820 C   0  0  0  0  0  0
  -44.3955   13.6990   21.1639 C   0  0  0  0  0  0
  -43.5167   14.3732   22.0212 C   0  0  0  0  0  0
  -42.5510   15.1859   21.4910 C   0  0  0  0  0  0
  -45.5591   12.6002   21.9296 Cl  0  0  0  0  0  0
  -44.1520   18.8683   15.8044 C   0  0  0  0  0  0
  -40.7617   18.3013   21.0896 H   0  0  0  0  0  0
  -47.9653   15.0980   24.8071 H   0  0  0  0  0  0
  -46.7675   21.1663   22.8295 H   0  0  0  0  0  0
  -42.6173   29.8111   24.2449 H   0  0  0  0  0  0
  -51.7014   21.2057   25.5223 H   0  0  0  0  0  0
  1  2  1  0  0  0
  2  3  2  0  0  0
  3  4  1  0  0  0
  3 69  1  0  0  0
  4  5  1  0  0  0
  5  6  2  0  0  0
  5 11  1  0  0  0
  6  7  1  0  0  0
  6  2  1  0  0  0
  7  8  2  0  0  0
  7 62  1  0  0  0
  8  9  1  0  0  0
  9 10  1  0  0  0
  9 16  1  0  0  0
 10 11  1  0  0  0
 11 12  1  0  0  0
 12 13  2  0  0  0
 12 15  1  0  0  0
 13 14  1  0  0  0
 14 10  2  0  0  0
 16 17  1  0  0  0
 17 18  2  0  0  0
 17 19  1  0  0  0
 19 20  1  0  0  0
 19 70  1  0  0  0
 20 21  1  0  0  0
 21 22  1  0  0  0
 22 23  1  0  0  0
 23 24  1  0  0  0
 24 25  1  0  0  0
 25 26  1  0  0  0
 26 27  1  0  0  0
 27 28  1  0  0  0
 28 29  1  0  0  0
 29 30  1  0  0  0
 30 31  2  0  0  0
 30 32  1  0  0  0
 32 33  1  0  0  0
 32 71  1  0  0  0
 33 34  1  0  0  0
 33 58  1  0  0  0
 34 35  2  0  0  0
 34 36  1  0  0  0
 36 37  1  0  0  0
 37 38  1  0  0  0
 38 39  1  0  0  0
 38 57  1  0  0  0
 39 40  1  0  0  0
 40 41  1  0  0  0
 40 36  1  0  0  0
 41 42  2  0  0  0
 41 43  1  0  0  0
 43 44  1  0  0  0
 43 72  1  0  0  0
 44 45  1  0  0  0
 45 46  2  0  0  0
 46 47  1  0  0  0
 47 48  2  0  0  0
 48 49  1  0  0  0
 48 51  1  0  0  0
 49 50  2  0  0  0
 50 45  1  0  0  0
 51 52  2  0  0  0
 52 53  1  0  0  0
 52 56  1  0  0  0
 53 54  1  0  0  0
 53 73  1  0  0  0
 54 55  1  0  0  0
 55 51  1  0  0  0
 57 74  1  0  0  0
 58 59  1  0  0  0
 58 60  1  0  0  0
 58 61  1  0  0  0
 62 63  2  0  0  0
 63 64  1  0  0  0
 64 65  2  0  0  0
 65 66  1  0  0  0
 65 68  1  0  0  0
 66 67  2  0  0  0
 67 62  1  0  0  0
M  END
>  <CHROM.0>
9.61175700,-1.72897027,-137.46176413,130.54189500,-112.12147481,169.96896524

>  <CHROM.1>
30.60699251,-55.14523823,171.85511150,-168.28844538,63.63607778,173.42640808
75.01269681,178.34196533,-61.83057911,-173.48093700,-58.74765083,-58.44339593
68.77297731,132.86970443,-115.16656534,-44.72321317,177.95116286,144.93762796
-28.36627435,-93.03908469,162.13585285,43.82451956,-44.44689177,18.65050093
22.46302816,-0.85512192,0.68161994,0.31350346

>  <Name>
conf_6

>  <Rbt.Current_Directory>
/home/paula/Documents/testing/tutorial/protac_scoring/protac_mz1/protein_pose_8181

>  <Rbt.Executable>
rbdock/0.1.0

>  <Rbt.Library>
librxdock.so/0.1.0

>  <Rbt.Parameter_File>
/home/paula/Apps/install/miniconda3/envs/p4ward/share/rxdock-2013.1.1_148c5bd1-1/data/scripts/score.prm

>  <Rbt.Receptor>
cavity.prm

>  <SCORE>
49.9355

>  <SCORE.INTER>
53.2999

>  <SCORE.INTER.CONST>
1

>  <SCORE.INTER.POLAR>
-2.7621

>  <SCORE.INTER.REPUL>
0

>  <SCORE.INTER.ROT>
21

>  <SCORE.INTER.VDW>
36.2911

>  <SCORE.INTER.norm>
0.772463

>  <SCORE.INTRA>
0

>  <SCORE.INTRA.DIHEDRAL>
0

>  <SCORE.INTRA.DIHEDRAL.0>
28.323

>  <SCORE.INTRA.POLAR>
0

>  <SCORE.INTRA.POLAR.0>
0

>  <SCORE.INTRA.REPUL>
0

>  <SCORE.INTRA.REPUL.0>
0

>  <SCORE.INTRA.VDW>
0

>  <SCORE.INTRA.VDW.0>
-7.48417

>  <SCORE.INTRA.norm>
0

>  <SCORE.RESTR>
0

>  <SCORE.RESTR.CAVITY>
0

>  <SCORE.RESTR.norm>
0

>  <SCORE.SYSTEM>
-3.36443

>  <SCORE.SYSTEM.CONST>
0

>  <SCORE.SYSTEM.DIHEDRAL>
15.6857

>  <SCORE.SYSTEM.POLAR>
-3.77449

>  <SCORE.SYSTEM.VDW>
1.626

>  <SCORE.SYSTEM.norm>
-0.0487598

>  <SCORE.heavy>
69

>  <SCORE.norm>
0.723703

$$$$
conf_7
  RxDock  10202421033D
librxdock.so/0.1.0
 74 80  0  0  0  0  0  0  0  0999 V2000
  -44.3284   17.6888   18.8168 C   0  0  0  0  0  0
  -43.0890   17.5901   17.9480 C   0  0  0  0  0  0
  -43.0594   18.1707   16.5847 C   0  0  0  0  0  0
  -41.5089   17.9337   15.8572 S   0  0  0  0  0  0
  -40.7553   17.0913   17.1801 C   0  0  0  0  0  0
  -41.7482   16.9722   18.2610 C   0  0  0  0  0  0
  -41.4146   16.2535   19.5354 C   0  0  0  0  0  0
  -40.3403   16.4833   20.1189 N   0  0  0  0  0  0
  -39.3020   17.4167   19.6737 C   0  0  0  0  0  0
  -38.7930   16.8051   18.3850 C   0  0  0  0  0  0
  -39.4635   16.6611   17.2591 N   0  0  0  0  0  0
  -38.7436   16.1020   16.2738 C   0  0  0  0  0  0
  -37.5335   15.8768   16.8194 N   0  0  0  0  0  0
  -37.5573   16.3259   18.1758 N   0  0  0  0  0  0
  -39.1286   15.7856   14.8494 C   0  0  0  0  0  0
  -38.2307   17.3122   20.6825 C   0  0  0  0  0  0
  -38.6270   17.4704   22.1697 C   0  0  0  0  0  0
  -38.3583   18.0991   22.9313 O   0  0  0  0  0  0
  -39.5496   16.4240   22.5765 N   0  0  0  0  0  0
  -40.1931   16.2330   23.9055 C   0  0  0  0  0  0
  -40.6796   14.8888   24.1492 C   0  0  0  0  0  0
  -41.4151   14.2737   25.1415 O   0  0  0  0  0  0
  -42.7299   14.1235   24.8714 C   0  0  0  0  0  0
  -43.8234   13.3088   25.4386 C   0  0  0  0  0  0
  -45.0897   13.4784   24.8757 O   0  0  0  0  0  0
  -46.1617   12.7381   25.1182 C   0  0  0  0  0  0
  -47.5809   13.0091   24.9675 C   0  0  0  0  0  0
  -48.4443   13.3487   24.0396 O   0  0  0  0  0  0
  -49.8489   13.6635   24.2873 C   0  0  0  0  0  0
  -49.9200   14.8694   25.2391 C   0  0  0  0  0  0
  -50.9802   15.2164   25.7786 O   0  0  0  0  0  0
  -48.7301   15.4347   25.4023 N   0  0  0  0  0  0
  -48.4288   16.5123   26.3396 C   0  0  0  0  0  0
  -48.0144   17.6974   25.4343 C   0  0  0  0  0  0
  -47.2993   17.5044   24.4612 O   0  0  0  0  0  0
  -48.4644   18.9413   25.7406 N   0  0  0  0  0  0
  -49.3413   19.4450   26.8408 C   0  0  0  0  0  0
  -49.9457   20.7387   26.2518 C   0  0  0  0  0  0
  -48.8337   21.3059   25.4298 C   0  0  0  0  0  0
  -48.0751   20.0945   24.8347 C   0  0  0  0  0  0
  -46.7005   20.4459   24.8325 C   0  0  0  0  0  0
  -46.0107   20.2394   25.8236 O   0  0  0  0  0  0
  -46.2060   21.0100   23.7127 N   0  0  0  0  0  0
  -44.8340   21.4587   23.5823 C   0  0  0  0  0  0
  -44.6831   22.8403   23.9105 C   0  0  0  0  0  0
  -43.4446   23.3737   24.2094 C   0  0  0  0  0  0
  -43.2727   24.7337   24.4712 C   0  0  0  0  0  0
  -44.3587   25.6288   24.4434 C   0  0  0  0  0  0
  -45.6107   25.0976   24.1431 C   0  0  0  0  0  0
  -45.7735   23.7335   23.8822 C   0  0  0  0  0  0
  -44.1782   26.9455   24.6957 C   0  0  0  0  0  0
  -43.2013   27.7388   24.2073 C   0  0  0  0  0  0
  -43.2358   29.0181   24.6126 N   0  0  0  0  0  0
  -44.3281   29.3401   25.3545 C   0  0  0  0  0  0
  -45.1328   27.9259   25.6991 S   0  0  0  0  0  0
  -42.0920   27.2963   23.2395 C   0  0  0  0  0  0
  -51.0618   20.4824   25.4078 O   0  0  0  0  0  0
  -47.3412   16.0436   27.3493 C   0  0  0  0  0  0
  -47.0130   17.1875   28.3027 C   0  0  0  0  0  0
  -46.0246   15.5665   26.6708 C   0  0  0  0  0  0
  -47.8617   14.8637   28.1895 C   0  0  0  0  0  0
  -42.4672   15.3648   20.0793 C   0  0  0  0  0  0
  -43.3492   14.6744   19.2132 C   0  0  0  0  0  0
  -44.3694   13.8571   19.6866 C   0  0  0  0  0  0
  -44.5179   13.7335   21.0319 C   0  0  0  0  0  0
  -43.6593   14.4319   21.8816 C   0  0  0  0  0  0
  -42.6541   15.2277   21.4253 C   0  0  0  0  0  0
  -45.6975   12.6517   21.7873 Cl  0  0  0  0  0  0
  -44.1386   18.8827   15.8025 C   0  0  0  0  0  0
  -39.8275   15.6020   21.9406 H   0  0  0  0  0  0
  -47.8966   15.2217   24.8156 H   0  0  0  0  0  0
  -46.7839   21.1743   22.8281 H   0  0  0  0  0  0
  -42.4872   29.7433   24.3951 H   0  0  0  0  0  0
  -51.7695   20.0561   25.9607 H   0  0  0  0  0  0
  1  2  1  0  0  0
  2  3  2  0  0  0
  3  4  1  0  0  0
  3 69  1  0  0  0
  4  5  1  0  0  0
  5  6  2  0  0  0
  5 11  1  0  0  0
  6  7  1  0  0  0
  6  2  1  0  0  0
  7  8  2  0  0  0
  7 62  1  0  0  0
  8  9  1  0  0  0
  9 10  1  0  0  0
  9 16  1  0  0  0
 10 11  1  0  0  0
 11 12  1  0  0  0
 12 13  2  0  0  0
 12 15  1  0  0  0
 13 14  1  0  0  0
 14 10  2  0  0  0
 16 17  1  0  0  0
 17 18  2  0  0  0
 17 19  1  0  0  0
 19 20  1  0  0  0
 19 70  1  0  0  0
 20 21  1  0  0  0
 21 22  1  0  0  0
 22 23  1  0  0  0
 23 24  1  0  0  0
 24 25  1  0  0  0
 25 26  1  0  0  0
 26 27  1  0  0  0
 27 28  1  0  0  0
 28 29  1  0  0  0
 29 30  1  0  0  0
 30 31  2  0  0  0
 30 32  1  0  0  0
 32 33  1  0  0  0
 32 71  1  0  0  0
 33 34  1  0  0  0
 33 58  1  0  0  0
 34 35  2  0  0  0
 34 36  1  0  0  0
 36 37  1  0  0  0
 37 38  1  0  0  0
 38 39  1  0  0  0
 38 57  1  0  0  0
 39 40  1  0  0  0
 40 41  1  0  0  0
 40 36  1  0  0  0
 41 42  2  0  0  0
 41 43  1  0  0  0
 43 44  1  0  0  0
 43 72  1  0  0  0
 44 45  1  0  0  0
 45 46  2  0  0  0
 46 47  1  0  0  0
 47 48  2  0  0  0
 48 49  1  0  0  0
 48 51  1  0  0  0
 49 50  2  0  0  0
 50 45  1  0  0  0
 51 52  2  0  0  0
 52 53  1  0  0  0
 52 56  1  0  0  0
 53 54  1  0  0  0
 53 73  1  0  0  0
 54 55  1  0  0  0
 55 51  1  0  0  0
 57 74  1  0  0  0
 58 59  1  0  0  0
 58 60  1  0  0  0
 58 61  1  0  0  0
 62 63  2  0  0  0
 63 64  1  0  0  0
 64 65  2  0  0  0
 65 66  1  0  0  0
 65 68  1  0  0  0
 66 67  2  0  0  0
 67 62  1  0  0  0
M  END
>  <CHROM.0>
9.61175700,-1.72897027,-137.46176413,130.54189500,-112.12147481,169.96896524

>  <CHROM.1>
32.63129106,-51.70658298,-121.56407841,-159.73747423,-173.59024877,98.45306361
164.09648109,178.29076369,171.11512001,157.74291577,58.39320835,-174.02452776
60.38453933,-168.54263999,-116.46546853,-41.38284688,178.74546050,62.25174428
-27.94674179,-93.24939702,161.94931023,44.98292743,-44.24514816,18.25057432
22.74261476,-0.88289776,0.74079110,0.17403755

>  <Name>
conf_7

>  <Rbt.Current_Directory>
/home/paula/Documents/testing/tutorial/protac_scoring/protac_mz1/protein_pose_8181

>  <Rbt.Executable>
rbdock/0.1.0

>  <Rbt.Library>
librxdock.so/0.1.0

>  <Rbt.Parameter_File>
/home/paula/Apps/install/miniconda3/envs/p4ward/share/rxdock-2013.1.1_148c5bd1-1/data/scripts/score.prm

>  <Rbt.Receptor>
cavity.prm

>  <SCORE>
0.364829

>  <SCORE.INTER>
3.72925

>  <SCORE.INTER.CONST>
1

>  <SCORE.INTER.POLAR>
-1.85566

>  <SCORE.INTER.REPUL>
1.25345

>  <SCORE.INTER.ROT>
21

>  <SCORE.INTER.VDW>
-22.6287

>  <SCORE.INTER.norm>
0.0540472

>  <SCORE.INTRA>
0

>  <SCORE.INTRA.DIHEDRAL>
0

>  <SCORE.INTRA.DIHEDRAL.0>
30.4828

>  <SCORE.INTRA.POLAR>
0

>  <SCORE.INTRA.POLAR.0>
-0.0974843

>  <SCORE.INTRA.REPUL>
0

>  <SCORE.INTRA.REPUL.0>
0

>  <SCORE.INTRA.VDW>
0

>  <SCORE.INTRA.VDW.0>
-4.45331

>  <SCORE.INTRA.norm>
0

>  <SCORE.RESTR>
0

>  <SCORE.RESTR.CAVITY>
0

>  <SCORE.RESTR.norm>
0

>  <SCORE.SYSTEM>
-3.36443

>  <SCORE.SYSTEM.CONST>
0

>  <SCORE.SYSTEM.DIHEDRAL>
15.6857

>  <SCORE.SYSTEM.POLAR>
-3.77449

>  <SCORE.SYSTEM.VDW>
1.626

>  <SCORE.SYSTEM.norm>
-0.0487598

>  <SCORE.heavy>
69

>  <SCORE.norm>
0.00528738

$$$$
conf_8
  RxDock  10202421033D
librxdock.so/0.1.0
 74 80  0  0  0  0  0  0  0  0999 V2000
  -44.3288   17.6886   18.8164 C   0  0  0  0  0  0
  -43.0890   17.5900   17.9482 C   0  0  0  0  0  0
  -43.0592   18.1713   16.5850 C   0  0  0  0  0  0
  -41.5078   17.9341   15.8579 S   0  0  0  0  0  0
  -40.7556   17.0917   17.1798 C   0  0  0  0  0  0
  -41.7479   16.9715   18.2614 C   0  0  0  0  0  0
  -41.4140   16.2531   19.5358 C   0  0  0  0  0  0
  -40.3400   16.4831   20.1191 N   0  0  0  0  0  0
  -39.3022   17.4166   19.6737 C   0  0  0  0  0  0
  -38.7927   16.8056   18.3853 C   0  0  0  0  0  0
  -39.4633   16.6612   17.2593 N   0  0  0  0  0  0
  -38.7436   16.1014   16.2740 C   0  0  0  0  0  0
  -37.5333   15.8762   16.8197 N   0  0  0  0  0  0
  -37.5574   16.3263   18.1762 N   0  0  0  0  0  0
  -39.1288   15.7853   14.8494 C   0  0  0  0  0  0
  -38.2297   17.3126   20.6832 C   0  0  0  0  0  0
  -38.6301   17.4714   22.1706 C   0  0  0  0  0  0
  -38.3571   18.1027   22.9306 O   0  0  0  0  0  0
  -39.5536   16.4378   22.5797 N   0  0  0  0  0  0
  -40.2026   16.2544   23.9073 C   0  0  0  0  0  0
  -40.6904   14.9177   24.1735 C   0  0  0  0  0  0
  -41.4299   14.3045   25.1618 O   0  0  0  0  0  0
  -42.7648   14.1785   24.8772 C   0  0  0  0  0  0
  -43.8390   13.3341   25.4350 C   0  0  0  0  0  0
  -45.1175   13.5042   24.8902 O   0  0  0  0  0  0
  -46.1776   12.7571   25.1305 C   0  0  0  0  0  0
  -47.6039   13.0135   25.0003 C   0  0  0  0  0  0
  -48.4484   13.3550   24.0386 O   0  0  0  0  0  0
  -49.8502   13.6653   24.2856 C   0  0  0  0  0  0
  -49.9207   14.8693   25.2388 C   0  0  0  0  0  0
  -50.9814   15.2185   25.7772 O   0  0  0  0  0  0
  -48.7281   15.4320   25.4041 N   0  0  0  0  0  0
  -48.4299   16.5122   26.3408 C   0  0  0  0  0  0
  -48.0138   17.6960   25.4353 C   0  0  0  0  0  0
  -47.2980   17.5042   24.4625 O   0  0  0  0  0  0
  -48.4640   18.9410   25.7411 N   0  0  0  0  0  0
  -49.3414   19.4453   26.8410 C   0  0  0  0  0  0
  -49.9456   20.7389   26.2521 C   0  0  0  0  0  0
  -48.8335   21.3064   25.4296 C   0  0  0  0  0  0
  -48.0747   20.0944   24.8348 C   0  0  0  0  0  0
  -46.7003   20.4459   24.8328 C   0  0  0  0  0  0
  -46.0105   20.2396   25.8234 O   0  0  0  0  0  0
  -46.2058   21.0098   23.7130 N   0  0  0  0  0  0
  -44.8343   21.4593   23.5814 C   0  0  0  0  0  0
  -44.6808   22.8393   23.9101 C   0  0  0  0  0  0
  -43.4448   23.3734   24.2096 C   0  0  0  0  0  0
  -43.2726   24.7326   24.4727 C   0  0  0  0  0  0
  -44.3537   25.6272   24.4464 C   0  0  0  0  0  0
  -45.6048   25.0983   24.1457 C   0  0  0  0  0  0
  -45.7800   23.7318   23.8806 C   0  0  0  0  0  0
  -44.1774   26.9450   24.6985 C   0  0  0  0  0  0
  -43.2025   27.7390   24.2075 C   0  0  0  0  0  0
  -43.2375   29.0190   24.6106 N   0  0  0  0  0  0
  -44.3311   29.3413   25.3488 C   0  0  0  0  0  0
  -45.1311   27.9249   25.7009 S   0  0  0  0  0  0
  -42.0944   27.2974   23.2368 C   0  0  0  0  0  0
  -51.0618   20.4818   25.4077 O   0  0  0  0  0  0
  -47.3331   16.0404   27.3500 C   0  0  0  0  0  0
  -47.0147   17.1890   28.3033 C   0  0  0  0  0  0
  -46.0291   15.5665   26.6670 C   0  0  0  0  0  0
  -47.8627   14.8657   28.1918 C   0  0  0  0  0  0
  -42.4672   15.3641   20.0795 C   0  0  0  0  0  0
  -43.3495   14.6747   19.2126 C   0  0  0  0  0  0
  -44.3704   13.8574   19.6856 C   0  0  0  0  0  0
  -44.5196   13.7328   21.0298 C   0  0  0  0  0  0
  -43.6596   14.4309   21.8808 C   0  0  0  0  0  0
  -42.6542   15.2265   21.4260 C   0  0  0  0  0  0
  -45.6989   12.6529   21.7859 Cl  0  0  0  0  0  0
  -44.1375   18.8836   15.8021 C   0  0  0  0  0  0
  -39.8333   15.6109   21.9473 H   0  0  0  0  0  0
  -47.8897   15.2129   24.8264 H   0  0  0  0  0  0
  -46.7836   21.1740   22.8276 H   0  0  0  0  0  0
  -42.4844   29.7420   24.3891 H   0  0  0  0  0  0
  -50.7077   20.1785   24.5496 H   0  0  0  0  0  0
  1  2  1  0  0  0
  2  3  2  0  0  0
  3  4  1  0  0  0
  3 69  1  0  0  0
  4  5  1  0  0  0
  5  6  2  0  0  0
  5 11  1  0  0  0
  6  7  1  0  0  0
  6  2  1  0  0  0
  7  8  2  0  0  0
  7 62  1  0  0  0
  8  9  1  0  0  0
  9 10  1  0  0  0
  9 16  1  0  0  0
 10 11  1  0  0  0
 11 12  1  0  0  0
 12 13  2  0  0  0
 12 15  1  0  0  0
 13 14  1  0  0  0
 14 10  2  0  0  0
 16 17  1  0  0  0
 17 18  2  0  0  0
 17 19  1  0  0  0
 19 20  1  0  0  0
 19 70  1  0  0  0
 20 21  1  0  0  0
 21 22  1  0  0  0
 22 23  1  0  0  0
 23 24  1  0  0  0
 24 25  1  0  0  0
 25 26  1  0  0  0
 26 27  1  0  0  0
 27 28  1  0  0  0
 28 29  1  0  0  0
 29 30  1  0  0  0
 30 31  2  0  0  0
 30 32  1  0  0  0
 32 33  1  0  0  0
 32 71  1  0  0  0
 33 34  1  0  0  0
 33 58  1  0  0  0
 34 35  2  0  0  0
 34 36  1  0  0  0
 36 37  1  0  0  0
 37 38  1  0  0  0
 38 39  1  0  0  0
 38 57  1  0  0  0
 39 40  1  0  0  0
 40 41  1  0  0  0
 40 36  1  0  0  0
 41 42  2  0  0  0
 41 43  1  0  0  0
 43 44  1  0  0  0
 43 72  1  0  0  0
 44 45  1  0  0  0
 45 46  2  0  0  0
 46 47  1  0  0  0
 47 48  2  0  0  0
 48 49  1  0  0  0
 48 51  1  0  0  0
 49 50  2  0  0  0
 50 45  1  0  0  0
 51 52  2  0  0  0
 52 53  1  0  0  0
 52 56  1  0  0  0
 53 54  1  0  0  0
 53 73  1  0  0  0
 54 55  1  0  0  0
 55 51  1  0  0  0
 57 74  1  0  0  0
 58 59  1  0  0  0
 58 60  1  0  0  0
 58 61  1  0  0  0
 62 63  2  0  0  0
 63 64  1  0  0  0
 64 65  2  0  0  0
 65 66  1  0  0  0
 65 68  1  0  0  0
 66 67  2  0  0  0
 67 62  1  0  0  0
M  END
>  <CHROM.0>
9.61175700,-1.72897027,-137.46176413,130.54189500,-112.12147481,169.96896524

>  <CHROM.1>
32.58337851,-51.69625096,-121.80183551,-159.25544634,-173.31762255,96.85215475
162.22246695,178.90310476,171.79767044,157.94103769,58.82439361,-173.70074672
60.52065473,-168.78532986,-116.29749774,-41.23842293,178.91948441,-78.32357777
-27.93020698,-93.14817006,161.83977512,45.04225648,-44.24641521,18.25409751
22.74280926,-0.88280205,0.74114502,0.17507772

>  <Name>
conf_8

>  <Rbt.Current_Directory>
/home/paula/Documents/testing/tutorial/protac_scoring/protac_mz1/protein_pose_8181

>  <Rbt.Executable>
rbdock/0.1.0

>  <Rbt.Library>
librxdock.so/0.1.0

>  <Rbt.Parameter_File>
/home/paula/Apps/install/miniconda3/envs/p4ward/share/rxdock-2013.1.1_148c5bd1-1/data/scripts/score.prm

>  <Rbt.Receptor>
cavity.prm

>  <SCORE>
-39.3818

>  <SCORE.INTER>
-36.0174

>  <SCORE.INTER.CONST>
1

>  <SCORE.INTER.POLAR>
-2.70752

>  <SCORE.INTER.REPUL>
0.0382683

>  <SCORE.INTER.ROT>
21

>  <SCORE.INTER.VDW>
-53.4032

>  <SCORE.INTER.norm>
-0.521991

>  <SCORE.INTRA>
0

>  <SCORE.INTRA.DIHEDRAL>
0

>  <SCORE.INTRA.DIHEDRAL.0>
31.9052

>  <SCORE.INTRA.POLAR>
0

>  <SCORE.INTRA.POLAR.0>
-0.0969047

>  <SCORE.INTRA.REPUL>
0

>  <SCORE.INTRA.REPUL.0>
0

>  <SCORE.INTRA.VDW>
0

>  <SCORE.INTRA.VDW.0>
-2.70236

>  <SCORE.INTRA.norm>
0

>  <SCORE.RESTR>
0

>  <SCORE.RESTR.CAVITY>
0

>  <SCORE.RESTR.norm>
0

>  <SCORE.SYSTEM>
-3.36443

>  <SCORE.SYSTEM.CONST>
0

>  <SCORE.SYSTEM.DIHEDRAL>
15.6857

>  <SCORE.SYSTEM.POLAR>
-3.77449

>  <SCORE.SYSTEM.VDW>
1.626

>  <SCORE.SYSTEM.norm>
-0.0487598

>  <SCORE.heavy>
69

>  <SCORE.norm>
-0.570751

$$$$
conf_9
  RxDock  10202421033D
librxdock.so/0.1.0
 74 80  0  0  0  0  0  0  0  0999 V2000
  -44.3302   17.6864   18.8179 C   0  0  0  0  0  0
  -43.0913   17.5894   17.9477 C   0  0  0  0  0  0
  -43.0632   18.1704   16.5843 C   0  0  0  0  0  0
  -41.5107   17.9335   15.8566 S   0  0  0  0  0  0
  -40.7585   17.0936   17.1764 C   0  0  0  0  0  0
  -41.7498   16.9727   18.2594 C   0  0  0  0  0  0
  -41.4174   16.2572   19.5304 C   0  0  0  0  0  0
  -40.3425   16.4849   20.1147 N   0  0  0  0  0  0
  -39.3030   17.4146   19.6712 C   0  0  0  0  0  0
  -38.7914   16.8063   18.3859 C   0  0  0  0  0  0
  -39.4649   16.6620   17.2569 N   0  0  0  0  0  0
  -38.7457   16.1029   16.2712 C   0  0  0  0  0  0
  -37.5350   15.8778   16.8170 N   0  0  0  0  0  0
  -37.5585   16.3270   18.1733 N   0  0  0  0  0  0
  -39.1314   15.7860   14.8473 C   0  0  0  0  0  0
  -38.2368   17.3122   20.6913 C   0  0  0  0  0  0
  -38.6489   17.4814   22.1625 C   0  0  0  0  0  0
  -38.3365   18.0960   22.9353 O   0  0  0  0  0  0
  -39.6706   16.5012   22.6031 N   0  0  0  0  0  0
  -40.1915   16.4543   23.9354 C   0  0  0  0  0  0
  -41.0429   15.5209   24.6386 C   0  0  0  0  0  0
  -42.2522   15.0507   24.5086 O   0  0  0  0  0  0
  -42.9288   14.2520   25.4285 C   0  0  0  0  0  0
  -44.2853   13.7553   24.9349 C   0  0  0  0  0  0
  -45.1706   13.0627   25.5149 O   0  0  0  0  0  0
  -46.3322   12.5651   25.3574 C   0  0  0  0  0  0
  -47.7492   12.8481   25.1019 C   0  0  0  0  0  0
  -48.4318   13.3691   24.1109 O   0  0  0  0  0  0
  -49.8728   13.6831   24.2627 C   0  0  0  0  0  0
  -49.9300   14.8759   25.2358 C   0  0  0  0  0  0
  -50.9890   15.2258   25.7695 O   0  0  0  0  0  0
  -48.7258   15.4244   25.4093 N   0  0  0  0  0  0
  -48.4319   16.5113   26.3389 C   0  0  0  0  0  0
  -48.0133   17.6946   25.4336 C   0  0  0  0  0  0
  -47.2970   17.5028   24.4622 O   0  0  0  0  0  0
  -48.4632   18.9403   25.7400 N   0  0  0  0  0  0
  -49.3413   19.4452   26.8398 C   0  0  0  0  0  0
  -49.9448   20.7390   26.2517 C   0  0  0  0  0  0
  -48.8318   21.3062   25.4305 C   0  0  0  0  0  0
  -48.0737   20.0933   24.8351 C   0  0  0  0  0  0
  -46.6993   20.4447   24.8331 C   0  0  0  0  0  0
  -46.0096   20.2384   25.8240 O   0  0  0  0  0  0
  -46.2041   21.0083   23.7141 N   0  0  0  0  0  0
  -44.8327   21.4578   23.5828 C   0  0  0  0  0  0
  -44.6810   22.8386   23.9118 C   0  0  0  0  0  0
  -43.4417   23.3697   24.2115 C   0  0  0  0  0  0
  -43.2704   24.7324   24.4750 C   0  0  0  0  0  0
  -44.3517   25.6262   24.4483 C   0  0  0  0  0  0
  -45.6030   25.0965   24.1473 C   0  0  0  0  0  0
  -45.7772   23.7317   23.8827 C   0  0  0  0  0  0
  -44.1786   26.9454   24.6985 C   0  0  0  0  0  0
  -43.2039   27.7392   24.2069 C   0  0  0  0  0  0
  -43.2413   29.0200   24.6066 N   0  0  0  0  0  0
  -44.3306   29.3404   25.3535 C   0  0  0  0  0  0
  -45.1341   27.9258   25.6974 S   0  0  0  0  0  0
  -42.0928   27.2965   23.2394 C   0  0  0  0  0  0
  -51.0611   20.4827   25.4072 O   0  0  0  0  0  0
  -47.3456   16.0473   27.3581 C   0  0  0  0  0  0
  -47.0155   17.1888   28.3052 C   0  0  0  0  0  0
  -46.0351   15.5755   26.6689 C   0  0  0  0  0  0
  -47.8656   14.8591   28.1830 C   0  0  0  0  0  0
  -42.4731   15.3674   20.0724 C   0  0  0  0  0  0
  -43.3652   14.6836   19.2066 C   0  0  0  0  0  0
  -44.3744   13.8581   19.6966 C   0  0  0  0  0  0
  -44.4925   13.7241   21.0531 C   0  0  0  0  0  0
  -43.6215   14.4104   21.8888 C   0  0  0  0  0  0
  -42.6274   15.2205   21.4138 C   0  0  0  0  0  0
  -45.6822   12.6467   21.8123 Cl  0  0  0  0  0  0
  -44.1403   18.8836   15.8020 C   0  0  0  0  0  0
  -39.9752   15.7260   21.9751 H   0  0  0  0  0  0
  -47.8848   15.1571   24.8616 H   0  0  0  0  0  0
  -46.7811   21.1723   22.8281 H   0  0  0  0  0  0
  -42.4975   29.7500   24.3811 H   0  0  0  0  0  0
  -50.8494   20.7670   24.4764 H   0  0  0  0  0  0
  1  2  1  0  0  0
  2  3  2  0  0  0
  3  4  1  0  0  0
  3 69  1  0  0  0
  4  5  1  0  0  0
  5  6  2  0  0  0
  5 11  1  0  0  0
  6  7  1  0  0  0
  6  2  1  0  0  0
  7  8  2  0  0  0
  7 62  1  0  0  0
  8  9  1  0  0  0
  9 10  1  0  0  0
  9 16  1  0  0  0
 10 11  1  0  0  0
 11 12  1  0  0  0
 12 13  2  0  0  0
 12 15  1  0  0  0
 13 14  1  0  0  0
 14 10  2  0  0  0
 16 17  1  0  0  0
 17 18  2  0  0  0
 17 19  1  0  0  0
 19 20  1  0  0  0
 19 70  1  0  0  0
 20 21  1  0  0  0
 21 22  1  0  0  0
 22 23  1  0  0  0
 23 24  1  0  0  0
 24 25  1  0  0  0
 25 26  1  0  0  0
 26 27  1  0  0  0
 27 28  1  0  0  0
 28 29  1  0  0  0
 29 30  1  0  0  0
 30 31  2  0  0  0
 30 32  1  0  0  0
 32 33  1  0  0  0
 32 71  1  0  0  0
 33 34  1  0  0  0
 33 58  1  0  0  0
 34 35  2  0  0  0
 34 36  1  0  0  0
 36 37  1  0  0  0
 37 38  1  0  0  0
 38 39  1  0  0  0
 38 57  1  0  0  0
 39 40  1  0  0  0
 40 41  1  0  0  0
 40 36  1  0  0  0
 41 42  2  0  0  0
 41 43  1  0  0  0
 43 44  1  0  0  0
 43 72  1  0  0  0
 44 45  1  0  0  0
 45 46  2  0  0  0
 46 47  1  0  0  0
 47 48  2  0  0  0
 48 49  1  0  0  0
 48 51  1  0  0  0
 49 50  2  0  0  0
 50 45  1  0  0  0
 51 52  2  0  0  0
 52 53  1  0  0  0
 52 56  1  0  0  0
 53 54  1  0  0  0
 53 73  1  0  0  0
 54 55  1  0  0  0
 55 51  1  0  0  0
 57 74  1  0  0  0
 58 59  1  0  0  0
 58 60  1  0  0  0
 58 61  1  0  0  0
 62 63  2  0  0  0
 63 64  1  0  0  0
 64 65  2  0  0  0
 65 66  1  0  0  0
 65 68  1  0  0  0
 66 67  2  0  0  0
 67 62  1  0  0  0
M  END
>  <CHROM.0>
9.61175700,-1.72897027,-137.46176413,130.54189500,-112.12147481,169.96896524

>  <CHROM.1>
32.05390781,-51.89392261,-125.61989290,-171.11542164,-60.22742446,-171.72638712
-174.71807700,-177.19162688,177.76248844,-60.51742438,63.75241111,-171.43314542
69.77838855,-166.23578344,-115.23836292,-40.97402888,178.66790314,-116.15158545
-27.97238158,-93.14933857,161.84605694,44.92581523,-44.27920955,18.27368748
22.75646340,-0.87568456,0.74566945,0.18455169

>  <Name>
conf_9

>  <Rbt.Current_Directory>
/home/paula/Documents/testing/tutorial/protac_scoring/protac_mz1/protein_pose_8181

>  <Rbt.Executable>
rbdock/0.1.0

>  <Rbt.Library>
librxdock.so/0.1.0

>  <Rbt.Parameter_File>
/home/paula/Apps/install/miniconda3/envs/p4ward/share/rxdock-2013.1.1_148c5bd1-1/data/scripts/score.prm

>  <Rbt.Receptor>
cavity.prm

>  <SCORE>
-38.7408

>  <SCORE.INTER>
-35.3763

>  <SCORE.INTER.CONST>
1

>  <SCORE.INTER.POLAR>
-2.77603

>  <SCORE.INTER.REPUL>
0.000378342

>  <SCORE.INTER.ROT>
21

>  <SCORE.INTER.VDW>
-52.3397

>  <SCORE.INTER.norm>
-0.512701

>  <SCORE.INTRA>
0

>  <SCORE.INTRA.DIHEDRAL>
0

>  <SCORE.INTRA.DIHEDRAL.0>
29.2851

>  <SCORE.INTRA.POLAR>
0

>  <SCORE.INTRA.POLAR.0>
-0.186795

>  <SCORE.INTRA.REPUL>
0

>  <SCORE.INTRA.REPUL.0>
0

>  <SCORE.INTRA.VDW>
0

>  <SCORE.INTRA.VDW.0>
-3.73393

>  <SCORE.INTRA.norm>
0

>  <SCORE.RESTR>
0

>  <SCORE.RESTR.CAVITY>
0

>  <SCORE.RESTR.norm>
0

>  <SCORE.SYSTEM>
-3.36443

>  <SCORE.SYSTEM.CONST>
0

>  <SCORE.SYSTEM.DIHEDRAL>
15.6857

>  <SCORE.SYSTEM.POLAR>
-3.77449

>  <SCORE.SYSTEM.VDW>
1.626

>  <SCORE.SYSTEM.norm>
-0.0487598

>  <SCORE.heavy>
69

>  <SCORE.norm>
-0.56146

$$$$
